288
#forces [0 0 0] --- created by Molecular Workbench, http://mw.concord.org
Zn  -8.1983  -7.09254  -8.70871  -0.00094  -0.00007  0.00019  0
Zn  -6.69802  -6.25343  -6.68115  0.0004  0.00068  -0.00062  0
Zn  -8.15248  -7.0518  -4.54326  0.0005  0.00016  0.00103  0
Zn  -6.74132  -6.21967  -2.34823  0.00096  0.00026  -0.00023  0
Zn  -8.11988  -7.04444  -0.22428  -0.00067  -0.00032  0.0003  0
Zn  -6.77338  -6.25352  1.9861  0.00022  0.00041  -0.00059  0
Zn  -8.13354  -7.07849  4.16551  0.00045  -0.00023  -0.00028  0
Zn  -6.80913  -6.26905  6.40444  0  0  0  0
Zn  -6.85243  -4.70116  -8.87209  -0.0001  0.00064  0.0007  0
Zn  -5.34839  -3.9141  -6.72368  0  0  0  0
Zn  -6.73715  -4.6833  -4.53048  0.00017  0.00003  0.00003  0
Zn  -5.38114  -3.90291  -2.37089  0  0  0  0
Zn  -6.79338  -4.64456  -0.1849  -0.00085  -0.00046  -0.0014  0
Zn  -5.40842  -3.9048  2.00174  -0.00009  0  -0.00056  0
Zn  -6.78844  -4.69286  4.16648  0.00074  -0.00019  -0.00022  0
Zn  -5.43862  -3.93282  6.41196  -0.0007  -0.00041  -0.00047  0
Zn  -5.42561  -2.36066  -8.93368  -0.00065  0.00025  0.00066  0
Zn  -4.03758  -1.58431  -6.72504  0.00026  -0.00069  0.00073  0
Zn  -5.40458  -2.34813  -4.49332  -0.00046  0.00097  0.00068  0
Zn  -4.03963  -1.56752  -2.34475  -0.00032  0.00012  0.00035  0
Zn  -5.41404  -2.34572  -0.18964  0.00006  0.00041  0.00026  0
Zn  -4.02731  -1.58014  2.02795  -0.00026  -0.00021  -0.00024  0
Zn  -5.43818  -2.33633  4.18672  -0.00018  0.00065  0.00006  0
Zn  -4.08084  -1.60371  6.4064  0.0005  0.00022  0.00005  0
Zn  -4.05292  -0.02158  -8.89315  -0.00001  0.00041  0.00031  0
Zn  -2.69438  0.75797  -6.70658  -0.00018  0.00001  -0.00004  0
Zn  -4.03402  -0.03097  -4.53733  0.00011  -0.00038  0.00093  0
Zn  -2.70043  0.71914  -2.33448  0.00006  0.00038  -0.00042  0
Zn  -4.10805  0.00493  -0.14298  -0.00059  -0.00057  0.00089  0
Zn  -2.70349  0.74828  2.02859  -0.00059  -0.00041  -0.00095  0
Zn  -4.06757  -0.03324  4.21579  0.00057  -0.00086  -0.00042  0
Zn  -2.72287  0.70469  6.44331  -0.00029  0.00083  0.00061  0
Zn  -2.70711  2.34897  -8.92552  -0.00031  -0.00045  0.00022  0
Zn  -1.33859  3.101  -6.72449  -0.00016  -0.00035  0.00051  0
Zn  -2.73626  2.29706  -4.5138  0.00031  0.00059  0.00127  0
Zn  -1.36168  3.04995  -2.32339  -0.00036  -0.00006  0.00014  0
Zn  -2.70551  2.28885  -0.15249  0.00003  0.00052  -0.00065  0
Zn  -1.35169  3.07713  2.05276  -0.00009  0.00031  0.00021  0
Zn  -2.75023  2.2885  4.23498  -0.00044  0.00058  -0.00054  0
Zn  -1.39348  3.06504  6.44605  0.00006  0.00076  0.00028  0
Zn  -1.39593  4.72465  -8.89514  -0.0004  -0.00069  0.0007  0
Zn  -0.02751  5.45421  -6.68692  -0.00008  -0.00007  0.0008  0
Zn  -1.39277  4.63387  -4.49424  -0.00083  0.00072  0.0008  0
Zn  -0.03368  5.42506  -2.33173  0.00057  -0.00028  -0.00054  0
Zn  -1.35146  4.62493  -0.16714  -0.00013  0.00072  -0.00029  0
Zn  -0.03917  5.4148  2.05164  -0.00028  0.00049  -0.00097  0
Zn  -1.41015  4.6789  4.23011  -0.00016  -0.00027  -0.00031  0
Zn  -0.07165  5.39938  6.47785  0.00055  0.00075  -0.00062  0
Zn  -5.43289  -7.07128  -8.93043  0.00071  0.00025  0.0011  0
Zn  -4.03798  -6.249  -6.71933  0.00014  0.00032  -0.00026  0
Zn  -5.39821  -7.04432  -4.49536  0.00072  0.00044  -0.00035  0
Zn  -4.02412  -6.22434  -2.35144  0.00044  0.00048  0.00052  0
Zn  -5.40381  -7.01614  -0.17661  0.00009  -0.00125  0.00066  0
Zn  -4.04891  -6.25898  1.99668  0.00011  -0.00055  -0.0004  0
Zn  -5.41441  -7.05161  4.18014  0.00067  -0.0008  -0.00021  0
Zn  -4.0769  -6.2737  6.40506  0.00027  0.00034  -0.00087  0
Zn  -4.1001  -4.70445  -8.95371  -0.00081  0.00015  -0.00022  0
Zn  -2.68144  -3.91032  -6.73617  0.00088  0.00088  -0.00031  0
Zn  -4.01362  -4.70478  -4.52702  -0.00008  0.00021  -0.00037  0
Zn  -2.67904  -3.89759  -2.34723  -0.00104  0.00009  0.00026  0
Zn  -4.07767  -4.66088  -0.16265  -0.00117  -0.00011  -0.00017  0
Zn  -2.69489  -3.91372  2.01606  -0.00059  0.00022  -0.00106  0
Zn  -4.06385  -4.69075  4.19705  0  0  0  0
Zn  -2.72788  -3.94318  6.39624  0.00062  0.0014  -0.0003  0
Zn  -2.70198  -2.37062  -8.92877  -0.00097  -0.0006  -0.00015  0
Zn  -1.34765  -1.57888  -6.73873  -0.00028  0.00027  -0.00021  0
Zn  -2.68437  -2.37971  -4.52324  -0.00015  -0.00019  -0.00044  0
Zn  -1.32549  -1.58252  -2.34  0.00199  -0.00077  -0.0007  0
Zn  -2.71357  -2.34648  -0.15964  -0.00118  0.00057  -0.00045  0
Zn  -1.34844  -1.60367  2.02517  0.00061  0.00038  -0.00093  0
Zn  -2.72865  -2.38488  4.22204  -0.00006  0.00069  0.00017  0
Zn  -1.38144  -1.63225  6.41398  -0.00068  0.00008  -0.00031  0
Zn  -1.35111  -0.00408  -8.91766  -0.00091  -0.00041  -0.00017  0
Zn  -0.00915  0.74531  -6.70738  -0.00082  -0.00079  0.00027  0
Zn  -1.36287  -0.01035  -4.52622  -0.00138  -0.00054  -0.00021  0
Zn  0.00419  0.72294  -2.32536  0.0005  -0.00051  -0.00046  0
Zn  -1.35969  -0.04046  -0.14863  0.00002  -0.00089  -0.0001  0
Zn  -0.00634  0.69961  2.06455  -0.00002  -0.00032  -0.0002  0
Zn  -1.3806  -0.06689  4.22952  -0.00053  -0.00196  -0.00067  0
Zn  -0.02129  0.73252  6.44586  0.00099  0.00022  -0.00031  0
Zn  0.00231  2.31304  -8.9159  -0.00029  -0.00061  -0.0003  0
Zn  1.33346  3.05974  -6.71234  0.00094  -0.00006  0.00025  0
Zn  -0.00993  2.30369  -4.4956  -0.00052  0.00009  0.00093  0
Zn  1.32105  3.06106  -2.31855  -0.00014  0.00081  0.00041  0
Zn  -0.02021  2.27263  -0.13053  0.00037  0.00002  -0.00063  0
Zn  1.31832  3.04956  2.03906  -0.00058  0.00013  -0.00041  0
Zn  -0.03706  2.2773  4.22009  0.00032  -0.00054  -0.00037  0
Zn  1.29884  3.02681  6.45216  0.00157  0.00059  0.00021  0
Zn  1.34031  4.67792  -8.88219  0.00032  0.00094  -0.00026  0
Zn  2.67952  5.42172  -6.68977  0.00063  -0.00064  0.00074  0
Zn  1.31388  4.6306  -4.49745  0.00002  -0.00031  -0.0005  0
Zn  2.65321  5.42766  -2.31929  0.00084  -0.00083  0  0
Zn  1.31475  4.57198  -0.14923  0.00014  0.00017  -0.00008  0
Zn  2.64509  5.40502  2.05144  -0.00064  -0.00084  -0.00059  0
Zn  1.31914  4.59592  4.23679  -0.00017  -0.00052  -0.00104  0
Zn  2.63761  5.42123  6.42368  -0.00032  -0.00001  -0.00075  0
Zn  -2.72055  -7.0285  -8.94515  0.00043  -0.00029  -0.00026  0
Zn  -1.37564  -6.23509  -6.72065  0.0001  0.00061  0.00001  0
Zn  -2.70326  -7.09403  -4.5363  -0.00008  0.0004  0.00121  0
Zn  -1.35824  -6.23879  -2.37878  0.00029  -0.00028  0.0004  0
Zn  -2.70506  -7.01808  -0.19349  -0.00092  -0.0007  0.00023  0
Zn  -1.36345  -6.23661  1.99261  0.00067  0.0003  0.00076  0
Zn  -2.72398  -7.07664  4.18635  -0.00002  0.00034  -0.00125  0
Zn  -1.38395  -6.31954  6.40726  0.00005  -0.00025  0.00017  0
Zn  -1.37409  -4.68303  -8.92798  -0.00024  0.00125  0.0008  0
Zn  0.00786  -3.90816  -6.7142  -0.00109  -0.00006  0.00061  0
Zn  -1.34771  -4.70616  -4.54275  -0.00005  0.0014  0.00082  0
Zn  0.00715  -3.90588  -2.37526  0.00022  -0.00021  0.00058  0
Zn  -1.3484  -4.67657  -0.18543  -0.00062  -0.00069  -0.00047  0
Zn  -0.02951  -3.92083  2.0325  -0.00036  -0.00021  -0.00184  0
Zn  -1.38369  -4.72148  4.21827  0.00057  0.00022  0.00028  0
Zn  -0.03967  -3.96651  6.43503  -0.00001  0.00102  -0.0007  0
Zn  -0.01589  -2.34818  -8.92652  0.00108  0.00095  0.00048  0
Zn  1.3429  -1.60129  -6.7404  0.00019  -0.00077  0.00018  0
Zn  -0.01225  -2.35368  -4.54235  0.00033  -0.00022  0.00084  0
Zn  1.33538  -1.59629  -2.32453  0.00079  -0.00069  -0.00062  0
Zn  -0.00136  -2.36573  -0.17411  -0.00061  0.00048  -0.00118  0
Zn  1.32466  -1.6124  2.05262  0.00052  -0.00046  0.00032  0
Zn  -0.02355  -2.39708  4.22074  -0.00028  -0.00013  -0.00062  0
Zn  1.31455  -1.60839  6.41081  -0.00066  -0.00047  -0.00059  0
Zn  1.3097  -0.02553  -8.93821  0.00084  0.00047  -0.00004  0
Zn  2.66698  0.74309  -6.72785  0.00079  -0.00067  0.00117  0
Zn  1.33201  -0.03523  -4.51863  -0.00038  0.00032  -0.0001  0
Zn  2.67326  0.72846  -2.33051  -0.00044  0.00079  0.00051  0
Zn  1.3375  -0.07251  -0.13079  0.00055  -0.00089  0.00026  0
Zn  2.66745  0.71493  2.0592  0.00029  0.00025  0.00003  0
Zn  1.32208  -0.07384  4.24533  0.00028  -0.00008  0.00065  0
Zn  2.65735  0.70989  6.47184  -0.00059  0.00028  -0.00012  0
Zn  2.69236  2.2984  -8.90492  -0.00029  -0.00028  0.0005  0
Zn  4.01866  3.07361  -6.67438  0.00026  -0.00031  0.00109  0
Zn  2.65668  2.28923  -4.53794  -0.00122  -0.00003  0.00056  0
Zn  3.99242  3.05057  -2.33699  -0.00022  -0.00032  0.00003  0
Zn  2.65675  2.26586  -0.14848  0.00072  0.00084  -0.00011  0
Zn  3.97669  3.03703  2.04754  -0.00004  0.00121  0.00003  0
Zn  2.63599  2.26231  4.24286  -0  -0.0007  -0.00034  0
Zn  3.99225  3.04656  6.44424  -0.00007  0.00002  -0.00065  0
Zn  4.03055  4.68157  -8.87647  -0.00062  0.00102  0.00129  0
Zn  5.35438  5.41746  -6.63089  -0.00167  -0.00051  -0.0011  0
Zn  3.9991  4.58826  -4.48784  0.00015  -0.00065  -0.00063  0
Zn  5.33111  5.41224  -2.30682  0.00064  0.00008  -0.00068  0
Zn  3.98568  4.6032  -0.13154  0.00095  0.00068  0.0006  0
Zn  5.3276  5.44469  2.06536  -0.00034  0.00029  -0.00124  0
Zn  4.00071  4.60876  4.22043  -0.00042  -0.00053  0.00056  0
Zn  5.34419  5.38134  6.4332  -0.00057  0.00052  -0.00002  0
Zn  -0.01416  -7.02305  -8.90666  0.00057  -0.00052  0.00002  0
Zn  1.32929  -6.25045  -6.69392  0.00042  0.00053  -0.00056  0
Zn  0.00241  -7.08641  -4.53886  0.00034  -0.00029  0.00124  0
Zn  1.34433  -6.24493  -2.34196  -0.00095  -0.00068  -0.0006  0
Zn  -0.00111  -7.05393  -0.16667  -0.00064  -0.00008  0.00068  0
Zn  1.33091  -6.22996  2.01434  -0.00014  0.00065  0.00063  0
Zn  -0.02438  -7.05915  4.15739  0.00167  0.00051  0.0011  0
Zn  1.29945  -6.32328  6.40303  0.00062  -0.00102  -0.00129  0
Zn  1.33775  -4.68825  -8.91775  0.00007  -0.00002  0.00065  0
Zn  2.69403  -3.90402  -6.71636  0  0.0007  0.00034  0
Zn  1.35331  -4.67874  -4.52105  0.00004  -0.00121  -0.00003  0
Zn  2.67325  -3.90757  -2.32502  -0.00071  -0.00084  0.00011  0
Zn  1.33758  -4.69227  -0.13652  0.00022  0.00032  -0.00003  0
Zn  2.67332  -3.93095  2.06443  0.00122  0.00003  -0.00056  0
Zn  1.31135  -4.71533  4.20088  -0.00025  0.00031  -0.00109  0
Zn  2.63763  -3.94012  6.43141  0.00029  0.00028  -0.0005  0
Zn  2.67265  -2.35161  -8.94531  0.00059  -0.00028  0.00012  0
Zn  4.00792  -1.56785  -6.71882  -0.00028  0.00008  -0.00065  0
Zn  2.66255  -2.35665  -4.53269  -0.00029  -0.00025  -0.00003  0
Zn  3.99249  -1.5692  -2.3427  -0.00055  0.00089  -0.00026  0
Zn  2.65675  -2.37017  -0.14298  0.00044  -0.00079  -0.00051  0
Zn  3.99799  -1.60649  2.04512  0.00038  -0.00032  0.0001  0
Zn  2.66302  -2.38479  4.25436  -0.00079  0.00067  -0.00117  0
Zn  4.0203  -1.61619  6.46472  -0.00084  -0.00047  0.00003  0
Zn  4.01544  -0.03331  -8.88431  0.00066  0.00047  0.00059  0
Zn  5.35354  0.75537  -6.69424  0.00028  0.00013  0.00062  0
Zn  4.00535  -0.02932  -4.52613  -0.00052  0.00046  -0.00032  0
Zn  5.33136  0.72399  -2.29939  0.00061  -0.00048  0.00118  0
Zn  3.99463  -0.04543  -0.14897  -0.00079  0.00069  0.00062  0
Zn  5.34225  0.71197  2.06885  -0.00033  0.00022  -0.00084  0
Zn  3.98711  -0.04043  4.2669  -0.00019  0.00077  -0.00018  0
Zn  5.3459  0.70648  6.45305  -0.00108  -0.00095  -0.00048  0
Zn  5.36967  2.32479  -8.90852  0.00001  -0.00102  0.0007  0
Zn  6.71367  3.07978  -6.69177  -0.00057  -0.00022  -0.00028  0
Zn  5.3595  2.27911  -4.50599  0.00036  0.00021  0.00184  0
Zn  6.6784  3.03484  -2.28806  0.00062  0.00069  0.00048  0
Zn  5.32286  2.26414  -0.09824  -0.00022  0.00021  -0.00058  0
Zn  6.67771  3.06445  2.06926  0.00005  -0.0014  -0.00082  0
Zn  5.32213  2.26645  4.24071  0.00109  0.00006  -0.00061  0
Zn  6.70408  3.04133  6.4545  0.00025  -0.00125  -0.0008  0
Zn  6.71396  4.67782  -8.88075  -0.00006  0.00025  -0.00017  0
Zn  8.05397  5.43492  -6.65982  0.00002  -0.00034  0.00125  0
Zn  6.69345  4.5949  -4.4661  -0.00067  -0.0003  -0.00076  0
Zn  8.03507  5.37636  -2.27998  0.00092  0.0007  -0.00022  0
Zn  6.68823  4.59709  -0.0947  -0.00028  0.00028  -0.00039  0
Zn  8.03326  5.45234  2.06281  0.00008  -0.0004  -0.00121  0
Zn  6.70564  4.59341  4.24716  -0.00009  -0.00061  -0.00001  0
Zn  8.05056  5.38679  6.47169  -0.00043  0.00029  0.00026  0
Zn  2.69239  -7.06291  -8.89717  0.00032  0.00002  0.00075  0
Zn  4.01088  -6.23765  -6.71029  0.00017  0.00052  0.00104  0
Zn  2.68493  -7.04671  -4.52491  0.00064  0.00084  0.00059  0
Zn  4.01527  -6.21369  -2.32425  -0.00014  -0.00017  0.00008  0
Zn  2.67679  -7.06936  -0.15421  -0.00085  0.00083  -0.00001  0
Zn  4.01609  -6.27232  2.02395  -0.00002  0.00031  0.00051  0
Zn  2.65049  -7.06342  4.21629  -0.00058  0.00064  -0.00074  0
Zn  3.98968  -6.31962  6.40872  -0.00031  -0.00094  0.00025  0
Zn  4.03116  -4.66851  -8.92567  -0.00161  -0.00059  -0.00021  0
Zn  5.36709  -3.91903  -6.69359  -0.00034  0.00054  0.00031  0
Zn  4.01169  -4.69126  -4.51256  0.00057  -0.00013  0.00042  0
Zn  5.35022  -3.91433  -2.34296  -0.00039  -0.00002  0.00061  0
Zn  4.00897  -4.70278  -0.15495  0.00014  -0.00081  -0.00041  0
Zn  5.33995  -3.94541  2.0221  0.00052  -0.00009  -0.00094  0
Zn  3.99655  -4.70144  4.23884  -0.00097  0.00007  -0.00025  0
Zn  5.32768  -3.95476  6.44243  0.0003  0.00058  0.00031  0
Zn  5.3513  -2.37422  -8.91933  -0.00101  -0.0002  0.00031  0
Zn  6.71061  -1.57482  -6.703  0.00054  0.00197  0.00067  0
Zn  5.33633  -2.34131  -4.53803  0.00002  0.0003  0.0002  0
Zn  6.68968  -1.60125  -2.32485  -0.00003  0.00091  0.00008  0
Zn  5.32583  -2.36464  -0.14812  -0.00051  0.00052  0.00045  0
Zn  6.69286  -1.63135  2.05272  0.00131  0.00059  0.00021  0
Zn  5.33916  -2.38701  4.2339  0.00081  0.00077  -0.00027  0
Zn  6.68111  -1.63763  6.44418  0.00088  0.00041  0.00017  0
Zn  6.71145  -0.00945  -8.88744  0.00066  -0.00006  0.00031  0
Zn  8.05863  0.74317  -6.69552  0.00002  -0.00067  -0.00017  0
Zn  6.67843  -0.03804  -4.49869  -0.00061  -0.00042  0.00093  0
Zn  8.04354  0.70476  -2.31386  0.00113  -0.00057  0.00044  0
Zn  6.6555  -0.05919  -0.13348  -0.00197  0.00078  0.0007  0
Zn  8.01438  0.73801  2.04974  0.00014  0.00017  0.00045  0
Zn  6.67765  -0.06283  4.26525  0.00027  -0.00026  0.00022  0
Zn  8.032  0.72891  6.45528  0.00098  0.0006  0.00015  0
Zn  8.05788  2.30146  -8.86971  -0.00062  -0.00139  0.0003  0
Zn  9.39385  3.04904  -6.67054  0.00029  0.00055  -0.00005  0
Zn  8.02489  2.27201  -4.48955  0.00062  -0.00021  0.00106  0
Zn  9.40766  3.01917  -2.31084  0.00113  0.00018  0.00017  0
Zn  8.00903  2.25589  -0.12627  0.00104  -0.00011  -0.00026  0
Zn  9.34363  3.06307  2.05353  0.00005  -0.0002  0.00041  0
Zn  8.01144  2.2686  4.26264  -0.0009  -0.00088  0.00031  0
Zn  9.43009  3.06276  6.4802  0.0008  -0.00013  0.00025  0
Zn  9.40689  4.63197  -8.87851  -0.00026  -0.00037  0.00087  0
Zn  10.74439  5.40994  -6.65362  -0.00066  0.00078  0.00019  0
Zn  9.37891  4.61728  -4.47015  -0.00007  0.00056  0.0004  0
Zn  10.73382  5.37446  -2.29686  -0.00011  0.00122  -0.00069  0
Zn  9.35413  4.58263  -0.12204  -0.00046  -0.00048  -0.00052  0
Zn  10.72822  5.40261  2.02187  -0.00077  -0.0004  0.00036  0
Zn  9.36798  4.6073  4.24584  -0.00018  -0.0003  0.00026  0
Zn  10.76288  5.42958  6.45695  -0.00064  -0.00028  -0.00111  0
Zn  5.40168  -7.04111  -8.95133  -0.00057  -0.00079  0.00062  0
Zn  6.74016  -6.32061  -6.70359  0.00017  0.00032  0.00029  0
Zn  5.36918  -7.05653  -4.52511  0.00026  -0.00052  0.00097  0
Zn  6.68146  -6.26664  -2.30636  0.00013  -0.00073  0.00025  0
Zn  5.36368  -7.06677  -0.14177  -0.00057  0.00028  0.00054  0
Zn  6.72275  -6.27559  2.02074  0.00083  -0.0007  -0.00079  0
Zn  5.35751  -7.0959  4.21341  0.00002  0.00006  -0.0008  0
Zn  6.72592  -6.36638  6.42165  0.00037  0.00074  -0.00072  0
Zn  6.72349  -4.70675  -8.9195  -0.00001  -0.00074  -0.00023  0
Zn  8.08021  -3.9302  -6.70846  0.00044  -0.00063  0.00057  0
Zn  6.68168  -4.71885  -4.52624  0.00013  -0.00029  -0.00013  0
Zn  8.03547  -3.93057  -2.32103  0  -0.00057  0.00061  0
Zn  6.69168  -4.69167  -0.1501  0.00033  0.00007  -0.00006  0
Zn  8.06626  -3.93879  2.04031  -0.00033  -0.0007  -0.00129  0
Zn  6.66859  -4.74272  4.251  0.00019  0.00036  -0.00054  0
Zn  8.03711  -3.99067  6.45204  0.00034  0.00048  -0.00021  0
Zn  8.0529  -2.34639  -8.91679  0.00028  -0.00087  -0.00062  0
Zn  9.39755  -1.60845  -6.68927  -0.00057  0.00085  0.00051  0
Zn  8.03346  -2.38999  -4.50208  0.00059  0.00048  0.00088  0
Zn  9.43805  -1.64664  -2.33052  0.00057  0.00057  -0.00085  0
Zn  8.03041  -2.36087  -0.13901  -0.00004  -0.00045  0.00038  0
Zn  9.364  -1.61075  2.06383  -0.00009  0.00039  -0.00091  0
Zn  8.02437  -2.39968  4.23308  0.00021  -0.00002  0.00014  0
Zn  9.38291  -1.62015  6.41964  0.00003  -0.00045  -0.00029  0
Zn  9.41083  -0.03798  -8.87989  -0.00048  -0.00022  -0.00012  0
Zn  10.76815  0.69461  -6.6602  0.00021  -0.00064  -0.00008  0
Zn  9.35732  -0.06158  -4.50142  0.00029  0.00019  0.00023  0
Zn  10.744  0.70403  -2.28384  -0.00001  -0.00048  -0.00025  0
Zn  9.36963  -0.07419  -0.12874  0.0003  -0.00008  -0.0004  0
Zn  10.73456  0.7064  2.01983  0.00052  -0.00097  -0.00059  0
Zn  9.36757  -0.05742  4.25156  -0.00028  0.0007  -0.00075  0
Zn  10.75559  0.71896  6.46021  0.00065  -0.00028  -0.00064  0
Zn  10.76863  2.29109  -8.88545  0.0007  0.00045  0.00046  0
Zn  12.11842  3.05115  -6.64  -0.00076  0.00019  0.0002  0
Zn  10.7384  2.26308  -4.47525  0.00005  -0.00003  0.00053  0
Zn  12.12341  3.00285  -2.28859  0.00083  0.00051  0.00137  0
Zn  10.71116  2.26119  -0.10259  -0.00004  -0.00025  0.00091  0
Zn  12.06715  3.04159  2.05699  -0.0001  -0.00006  -0.00003  0
Zn  10.6784  2.27238  4.2502  -0.0006  0.00028  0.00007  0
Zn  12.1824  3.05946  6.39861  0.00008  -0.00059  -0.00071  0
Zn  12.13911  4.62737  -8.87793  0.00027  0.0005  0.00101  0
Zn  13.46355  5.43678  -6.639  -0.00042  0.00025  0.00024  0
Zn  12.1034  4.61178  -4.45958  -0.00027  -0.00043  0.00063  0
Zn  13.44988  5.40274  -2.24921  0.0007  0.00033  -0.00035  0
Zn  12.07133  4.57797  -0.12525  -0.00092  -0.00024  0.00026  0
Zn  13.48247  5.41005  2.06976  -0.00049  -0.00015  -0.00105  0
Zn  12.02803  4.61173  4.20766  -0.0004  -0.00068  0.0007  0
Zn  13.52828  5.45081  6.23524  0.0009  0.00007  -0.00016  0
