256
#forces [0 0 0] --- created by Molecular Workbench, http://mw.concord.org
Al  -8.08237  -8.0824  -8.04823  0.00127  0.00127  0.00159  0
Al  -6.04383  -6.04382  -8.06859  0.00062  0.00062  0.00062  0
Al  -8.0824  -6.0235  -10.10714  0.00127  0.00159  0.00127  0
Al  -6.02351  -8.08239  -10.10714  0.00159  0.00127  0.00127  0
Al  -8.07825  -8.07823  -4.05623  0.00071  0.00071  0.00005  0
Al  -6.03532  -6.03532  -4.03547  0.00037  0.00037  -0.00053  0
Al  -8.10101  -6.03515  -6.05376  0.00088  -0.0003  0.00065  0
Al  -6.03516  -8.10103  -6.05376  -0.0003  0.00088  0.00065  0
Al  -8.09275  -8.09274  0.00025  0.00065  0.00065  0.00001  0
Al  -6.05403  -6.05403  -0.00843  -0.00044  -0.00044  -0.00152  0
Al  -8.10361  -6.04607  -2.03483  0.00029  0.00054  -0.00058  0
Al  -6.04606  -8.10361  -2.03484  0.00054  0.00029  -0.00058  0
Al  -8.08863  -8.08865  4.03916  0.00077  0.00077  -0.00077  0
Al  -6.05913  -6.05913  4.08111  0.00116  0.00116  -0.00035  0
Al  -8.1306  -6.05913  2.00963  0.00035  0.00116  -0.00116  0
Al  -6.05913  -8.13062  2.00964  0.00116  0.00035  -0.00116  0
Al  -8.10101  -4.02902  -8.05991  0.00088  0.00065  -0.0003  0
Al  -6.03533  -2.01071  -8.06008  0.00037  -0.00053  0.00037  0
Al  -8.07822  -2.03147  -10.10298  0.00071  0.00005  0.00071  0
Al  -6.03516  -4.02901  -10.12577  -0.0003  0.00065  0.00088  0
Al  -8.09719  -4.02587  -4.04168  0.00022  0.00047  0.00052  0
Al  -6.04375  -2.01877  -4.04352  -0.00061  -0.0001  -0.0001  0
Al  -8.09721  -2.01695  -6.05062  0.00022  0.00052  0.00047  0
Al  -6.03625  -4.02534  -6.05011  0.0002  0.00013  0.00013  0
Al  -8.09108  -4.02184  -0.02766  0.00023  0.00091  -0.00091  0
Al  -6.04856  -2.0253  -0.0105  -0.00017  0.00052  -0.001  0
Al  -8.09063  -2.02403  -2.02548  0.00048  0.00005  -0.00005  0
Al  -6.04855  -4.03901  -2.02419  -0.00017  0.001  -0.00052  0
Al  -8.09275  -4.04975  4.04324  0.00065  -0.00001  -0.00065  0
Al  -6.04607  -2.01466  4.05412  0.00054  0.00058  -0.00029  0
Al  -8.10361  -2.01468  1.99656  0.00029  0.00058  -0.00054  0
Al  -6.05402  -4.04108  2.00453  -0.00044  0.00152  0.00044  0
Al  -8.10361  -0.01008  -8.07081  0.00029  -0.00058  0.00054  0
Al  -6.05401  2.01632  -8.07877  -0.00044  -0.00152  -0.00044  0
Al  -8.09275  2.02501  -10.1175  0.00065  0.00001  0.00065  0
Al  -6.04606  -0.01008  -10.12838  0.00054  -0.00058  0.00029  0
Al  -8.09065  -0.00071  -4.04879  0.00048  -0.00005  0.00005  0
Al  -6.04855  2.01424  -4.05006  -0.00017  -0.001  0.00052  0
Al  -8.09107  1.99709  -6.0466  0.00023  -0.00091  0.00091  0
Al  -6.04856  0.00055  -6.06375  -0.00017  -0.00052  0.001  0
Al  -8.09721  -0.0078  -0.02363  0.00022  -0.00053  -0.00047  0
Al  -6.03624  2.00059  -0.02414  0.0002  -0.00013  -0.00013  0
Al  -8.09719  2.00111  -2.03257  0.00022  -0.00047  -0.00053  0
Al  -6.04375  -0.00597  -2.03073  -0.00061  0.0001  0.00011  0
Al  -8.07823  0.00673  4.02874  0.00071  -0.00005  -0.00071  0
Al  -6.03515  2.00425  4.05151  -0.0003  -0.00065  -0.00088  0
Al  -8.10101  2.00426  1.98566  0.00088  -0.00065  0.0003  0
Al  -6.03532  -0.01405  1.98583  0.00037  0.00053  -0.00037  0
Al  -8.13061  4.03439  -8.08388  0.00035  -0.00116  0.00116  0
Al  -6.05913  6.10589  -8.08388  0.00116  -0.00035  0.00116  0
Al  -8.08862  6.06389  -10.11341  0.00077  -0.00077  0.00077  0
Al  -6.05913  4.03439  -10.15538  0.00116  -0.00116  0.00035  0
Al  -8.1036  4.02131  -4.03941  0.00029  -0.00054  0.00058  0
Al  -6.04605  6.07886  -4.03941  0.00054  -0.00029  0.00058  0
Al  -8.09274  6.068  -6.0745  0.00065  -0.00065  -0.00001  0
Al  -6.05403  4.02928  -6.06583  -0.00044  0.00044  0.00152  0
Al  -8.10102  4.01039  -0.02049  0.00088  0.0003  -0.00065  0
Al  -6.03517  6.07626  -0.02049  -0.0003  -0.00088  -0.00065  0
Al  -8.07824  6.05348  -2.01802  0.00071  -0.00071  -0.00005  0
Al  -6.03532  4.01058  -2.03878  0.00037  -0.00037  0.00053  0
Al  -8.0824  3.99873  4.03288  0.00127  -0.00159  -0.00127  0
Al  -6.0235  6.05762  4.03289  0.00159  -0.00127  -0.00127  0
Al  -8.08239  6.05764  1.97399  0.00127  -0.00127  -0.00159  0
Al  -6.04383  4.01907  1.99433  0.00062  -0.00062  -0.00062  0
Al  -4.02902  -8.10101  -8.0599  0.00065  0.00088  -0.0003  0
Al  -2.01071  -6.03532  -8.06009  -0.00053  0.00037  0.00037  0
Al  -4.02902  -6.03516  -10.12577  0.00065  -0.0003  0.00088  0
Al  -2.03149  -8.07823  -10.10299  0.00005  0.00071  0.00071  0
Al  -4.02586  -8.09719  -4.0417  0.00047  0.00022  0.00053  0
Al  -2.01878  -6.04374  -4.04353  -0.00011  -0.00061  -0.00011  0
Al  -4.02536  -6.03624  -6.05012  0.00013  0.0002  0.00013  0
Al  -2.01694  -8.09719  -6.05064  0.00053  0.00022  0.00047  0
Al  -4.02185  -8.09107  -0.02766  0.00091  0.00023  -0.00091  0
Al  -2.0253  -6.04855  -0.01051  0.00052  -0.00017  -0.001  0
Al  -4.039  -6.04855  -2.02419  0.001  -0.00017  -0.00052  0
Al  -2.02403  -8.09064  -2.02547  0.00005  0.00049  -0.00005  0
Al  -4.04974  -8.09275  4.04326  -0.00001  0.00065  -0.00065  0
Al  -2.01466  -6.04607  4.05411  0.00058  0.00054  -0.00029  0
Al  -4.04108  -6.05403  2.00452  0.00152  -0.00044  0.00044  0
Al  -2.01468  -8.10361  1.99656  0.00058  0.00029  -0.00054  0
Al  -4.02535  -4.02535  -8.061  0.00013  0.00013  0.0002  0
Al  -2.01878  -2.01878  -8.06851  -0.00011  -0.0001  -0.00061  0
Al  -4.02588  -2.01693  -10.12197  0.00047  0.00053  0.00022  0
Al  -2.01694  -4.02587  -10.12199  0.00053  0.00047  0.00022  0
Al  -4.02104  -4.02104  -4.02713  0.00046  0.00046  0.00128  0
Al  -2.01237  -2.01238  -4.03713  0.0004  0.0004  0.0004  0
Al  -4.02104  -2.00236  -6.04579  0.00046  0.00128  0.00046  0
Al  -2.00237  -4.02104  -6.0458  0.00128  0.00046  0.00046  0
Al  -4.03351  -4.03351  -0.01598  0.00026  0.00026  -0.00026  0
Al  -2.03101  -2.031  -0.01636  0.00015  0.00015  -0.00081  0
Al  -4.03313  -2.03099  -2.0185  0.00081  0.00015  -0.00015  0
Al  -2.031  -4.03314  -2.0185  0.00015  0.00081  -0.00015  0
Al  -4.02185  -4.02185  4.04157  0.00091  0.00091  -0.00023  0
Al  -2.02403  -2.02404  4.04114  0.00005  0.00005  -0.00049  0
Al  -4.039  -2.0253  1.99906  0.001  0.00052  0.00017  0
Al  -2.0253  -4.039  1.99906  0.00052  0.001  0.00017  0
Al  -4.039  0.00055  -8.0733  0.001  -0.00052  -0.00017  0
Al  -2.0253  2.01425  -8.07331  0.00052  -0.001  -0.00017  0
Al  -4.02184  1.99711  -10.11583  0.00091  -0.00091  0.00023  0
Al  -2.02404  -0.00071  -10.1154  0.00005  -0.00005  0.00048  0
Al  -4.03313  0.00624  -4.05575  0.00081  -0.00015  0.00015  0
Al  -2.031  2.00839  -4.05575  0.00015  -0.00081  0.00015  0
Al  -4.03352  2.00876  -6.05827  0.00026  -0.00026  0.00026  0
Al  -2.03099  0.00624  -6.05789  0.00015  -0.00015  0.00081  0
Al  -4.02104  -0.02239  -0.02846  0.00046  -0.00128  -0.00046  0
Al  -2.00237  1.99629  -0.02847  0.00128  -0.00046  -0.00046  0
Al  -4.02104  1.99629  -2.04713  0.00046  -0.00046  -0.00128  0
Al  -2.01237  -0.01238  -2.03713  0.0004  -0.0004  -0.0004  0
Al  -4.02587  -0.00781  4.0477  0.00047  -0.00052  -0.00022  0
Al  -2.01694  2.00111  4.0477  0.00053  -0.00047  -0.00022  0
Al  -4.02535  2.00059  1.98675  0.00013  -0.00013  -0.0002  0
Al  -2.01878  -0.00598  1.99425  -0.00011  0.00011  0.00061  0
Al  -4.04107  4.02928  -8.07877  0.00152  0.00044  -0.00044  0
Al  -2.01467  6.07885  -8.07081  0.00058  -0.00029  0.00054  0
Al  -4.04975  6.06801  -10.11751  -0.00001  -0.00065  0.00065  0
Al  -2.01467  4.02131  -10.12838  0.00058  -0.00054  0.00029  0
Al  -4.039  4.0238  -4.05006  0.001  0.00017  0.00052  0
Al  -2.02403  6.06588  -4.04878  0.00005  -0.00049  0.00005  0
Al  -4.02184  6.06633  -6.04659  0.00091  -0.00023  0.00091  0
Al  -2.0253  4.0238  -6.06374  0.00052  0.00017  0.001  0
Al  -4.02535  4.01149  -0.02414  0.00013  -0.0002  -0.00013  0
Al  -2.01694  6.07245  -0.02364  0.00053  -0.00022  -0.00047  0
Al  -4.02587  6.07244  -2.03256  0.00047  -0.00022  -0.00053  0
Al  -2.01878  4.01899  -2.03073  -0.00011  0.00061  0.00011  0
Al  -4.02901  4.01039  4.05151  0.00065  0.0003  -0.00088  0
Al  -2.03148  6.05348  4.02872  0.00005  -0.00071  -0.00071  0
Al  -4.02902  6.07626  1.98565  0.00065  -0.00088  0.0003  0
Al  -2.01072  4.01057  1.98582  -0.00053  -0.00037  -0.00037  0
Al  -0.01009  -8.10362  -8.07081  -0.00058  0.00029  0.00054  0
Al  2.01632  -6.05402  -8.07877  -0.00152  -0.00044  -0.00044  0
Al  -0.01008  -6.04605  -10.12838  -0.00058  0.00054  0.00029  0
Al  2.02499  -8.09275  -10.1175  0.00001  0.00065  0.00065  0
Al  -0.00073  -8.09063  -4.04879  -0.00005  0.00049  0.00005  0
Al  2.01425  -6.04855  -4.05005  -0.001  -0.00017  0.00052  0
Al  0.00056  -6.04854  -6.06375  -0.00052  -0.00017  0.001  0
Al  1.9971  -8.09107  -6.04658  -0.00091  0.00023  0.00091  0
Al  -0.00782  -8.0972  -0.02364  -0.00053  0.00022  -0.00047  0
Al  2.0006  -6.03624  -0.02416  -0.00013  0.0002  -0.00013  0
Al  -0.00599  -6.04374  -2.03073  0.0001  -0.00061  0.0001  0
Al  2.00112  -8.09721  -2.03257  -0.00047  0.00022  -0.00053  0
Al  0.00672  -8.07824  4.02873  -0.00005  0.00071  -0.00071  0
Al  2.00426  -6.03515  4.0515  -0.00065  -0.0003  -0.00088  0
Al  -0.01403  -6.03532  1.98582  0.00053  0.00037  -0.00037  0
Al  2.00425  -8.10101  1.98565  -0.00065  0.00088  0.0003  0
Al  0.00056  -4.039  -8.07331  -0.00052  0.001  -0.00017  0
Al  2.01426  -2.0253  -8.0733  -0.00097  0.00046  -0.0002  0
Al  -0.00073  -2.02403  -10.11538  -0.00006  0.00004  0.00049  0
Al  1.9971  -4.02184  -10.11585  -0.00087  0.00088  0.00022  0
Al  0.00624  -4.03314  -4.05575  -0.00019  0.00078  0.00017  0
Al  2.00839  -2.03099  -4.05576  -0.00077  0.00024  0.00024  0
Al  0.00625  -2.031  -6.05789  -0.00019  0.00017  0.00077  0
Al  2.00876  -4.03352  -6.05827  -0.00021  0.00023  0.00023  0
Al  -0.02239  -4.02104  -0.02846  -0.00121  0.00047  -0.00049  0
Al  1.9963  -2.00238  -0.02846  -0.00048  0.00116  -0.00048  0
Al  -0.01239  -2.01237  -2.03713  -0.00038  0.00042  -0.00042  0
Al  1.9963  -4.02103  -2.04714  -0.00049  0.00047  -0.00117  0
Al  -0.00781  -4.02588  4.0477  -0.00052  0.00046  -0.00021  0
Al  2.00112  -2.01695  4.0477  -0.00046  0.00051  -0.00019  0
Al  -0.00598  -2.01878  1.99424  0.00008  -0.00004  0.00061  0
Al  2.00059  -4.02536  1.98675  -0.00014  0.00011  -0.0002  0
Al  -0.00598  -0.00597  -8.0685  0.00007  0.00006  -0.00061  0
Al  2.0006  2.00061  -8.06101  -0.00013  -0.00013  0.00019  0
Al  -0.0078  2.00112  -10.12198  -0.00052  -0.00047  0.00021  0
Al  2.00111  -0.00781  -10.12198  -0.00046  -0.00052  0.00021  0
Al  -0.01238  -0.01239  -4.03712  -0.00038  -0.00042  0.00042  0
Al  1.99629  1.99629  -4.02711  -0.00048  -0.00048  0.00116  0
Al  -0.02238  1.99628  -6.04579  -0.0012  -0.00049  0.00049  0
Al  1.9963  -0.02238  -6.04581  -0.00048  -0.00115  0.00049  0
Al  0.00625  0.00623  -0.01636  -0.00019  -0.00017  -0.00077  0
Al  2.00876  2.00876  -0.01599  -0.00021  -0.00021  -0.00021  0
Al  0.00624  2.00838  -2.01851  -0.00019  -0.00077  -0.00017  0
Al  2.00838  0.00623  -2.0185  -0.00077  -0.00023  -0.00023  0
Al  -0.00071  -0.00073  4.04114  -0.00008  -0.00006  -0.00044  0
Al  1.99709  1.99709  4.04158  -0.00088  -0.00088  -0.00021  0
Al  0.00056  2.01425  1.99905  -0.0005  -0.00097  0.00015  0
Al  2.01425  0.00056  1.99905  -0.00101  -0.00048  0.00015  0
Al  -0.01403  4.01058  -8.06007  0.00052  -0.00034  0.00034  0
Al  2.00426  6.07626  -8.0599  -0.00064  -0.00089  -0.00028  0
Al  0.00673  6.05349  -10.10299  -0.00007  -0.00071  0.00071  0
Al  2.00427  4.0104  -10.12577  -0.00064  0.00028  0.00089  0
Al  -0.00598  4.01899  -4.04352  0.00008  0.00061  -0.00005  0
Al  2.00111  6.07244  -4.04169  -0.00046  -0.00019  0.00051  0
Al  -0.0078  6.07246  -6.05062  -0.00052  -0.00021  0.00047  0
Al  2.0006  4.01149  -6.0501  -0.00013  -0.00019  0.00013  0
Al  0.00055  4.0238  -0.0105  -0.0005  0.00015  -0.00097  0
Al  1.99709  6.06633  -0.02765  -0.00088  -0.00021  -0.00088  0
Al  -0.00072  6.06589  -2.02547  -0.00008  -0.00044  -0.00006  0
Al  2.01425  4.0238  -2.02419  -0.00101  0.00015  -0.00048  0
Al  -0.01009  4.0213  4.05411  -0.00056  -0.00053  -0.00029  0
Al  2.02499  6.06799  4.04323  -0.00003  -0.00067  -0.00067  0
Al  -0.01009  6.07887  1.99656  -0.00056  -0.00029  -0.00053  0
Al  2.01632  4.02927  2.00454  -0.00148  0.00038  0.00038  0
Al  4.03438  -8.1306  -8.08388  -0.00117  0.00034  0.00118  0
Al  6.10586  -6.05913  -8.08389  -0.00035  0.00122  0.00122  0
Al  4.03438  -6.05913  -10.1554  -0.00121  0.00122  0.00034  0
Al  6.0639  -8.08865  -10.1134  -0.00077  0.00077  0.00077  0
Al  4.02131  -8.10362  -4.03942  -0.00052  0.0003  0.00058  0
Al  6.07885  -6.04606  -4.03943  -0.0003  0.00054  0.00058  0
Al  4.02928  -6.05403  -6.06582  0.00041  -0.00039  0.00148  0
Al  6.06799  -8.09275  -6.07452  -0.00067  0.00067  0.00003  0
Al  4.01039  -8.10101  -0.0205  0.00028  0.00089  -0.00065  0
Al  6.07626  -6.03516  -0.02049  -0.00089  -0.00028  -0.00064  0
Al  4.01059  -6.03533  -2.03879  -0.00034  0.0003  0.00052  0
Al  6.05348  -8.07824  -2.01804  -0.00071  0.00071  -0.00007  0
Al  3.99874  -8.08238  4.03287  -0.00156  0.00127  -0.00127  0
Al  6.05763  -6.0235  4.03288  -0.00125  0.00153  -0.00125  0
Al  4.01907  -6.04383  1.99433  -0.00065  0.00067  -0.00067  0
Al  6.05766  -8.08239  1.97399  -0.00125  0.00125  -0.00153  0
Al  4.02927  -4.04108  -8.07879  0.00038  0.00152  -0.00038  0
Al  6.07886  -2.01466  -8.0708  -0.0003  0.00058  0.00054  0
Al  4.0213  -2.01467  -10.12838  -0.00055  0.00058  0.00031  0
Al  6.068  -4.04976  -10.11751  -0.00067  0.00003  0.00067  0
Al  4.0238  -4.039  -4.05007  0.00013  0.00099  0.00048  0
Al  6.06589  -2.02403  -4.04879  -0.00044  0.00013  0.00013  0
Al  4.0238  -2.02531  -6.06376  0.00014  0.00048  0.001  0
Al  6.06632  -4.02184  -6.04661  -0.00021  0.00088  0.00088  0
Al  4.0115  -4.02535  -0.02416  -0.0002  0.00011  -0.00013  0
Al  6.07244  -2.01694  -0.02363  -0.00019  0.00051  -0.00046  0
Al  4.01899  -2.01878  -2.03073  0.0006  -0.00003  0.00003  0
Al  6.07245  -4.02587  -2.03255  -0.00019  0.00046  -0.00051  0
Al  4.0104  -4.02902  4.0515  0.00028  0.00065  -0.00089  0
Al  6.05349  -2.03148  4.02873  -0.00071  0.00007  -0.00071  0
Al  4.01057  -2.01072  1.98583  -0.00031  -0.00052  -0.00031  0
Al  6.07627  -4.02902  1.98565  -0.00089  0.00064  0.00028  0
Al  4.01058  -0.01404  -8.06007  -0.00031  0.00052  0.00031  0
Al  6.07627  2.00426  -8.0599  -0.00089  -0.00064  -0.00028  0
Al  4.01039  2.00426  -10.12576  0.00028  -0.00064  0.00089  0
Al  6.05348  0.00673  -10.10299  -0.00071  -0.00007  0.00071  0
Al  4.01899  -0.00598  -4.04353  0.0006  0.00003  -0.00003  0
Al  6.07245  2.00112  -4.04169  -0.00019  -0.00046  0.00051  0
Al  4.01149  2.00061  -6.05011  -0.00019  -0.00013  0.00013  0
Al  6.07245  -0.00781  -6.05062  -0.00019  -0.00051  0.00046  0
Al  4.0238  0.00056  -0.01049  0.00015  -0.00048  -0.001  0
Al  6.06633  1.9971  -0.02765  -0.00021  -0.00088  -0.00088  0
Al  4.0238  2.01425  -2.02419  0.00015  -0.00101  -0.00048  0
Al  6.06588  -0.00073  -2.02547  -0.00044  -0.00013  -0.00013  0
Al  4.0213  -0.01008  4.05412  -0.00054  -0.00058  -0.0003  0
Al  6.068  2.02499  4.04324  -0.00067  -0.00003  -0.00067  0
Al  4.02927  2.01634  2.00452  0.00038  -0.00148  0.00038  0
Al  6.07886  -0.01008  1.99655  -0.0003  -0.00058  -0.00054  0
Al  4.01907  4.01908  -8.06858  -0.00067  -0.00066  0.00067  0
Al  6.05764  6.05764  -8.04825  -0.00125  -0.00125  0.00153  0
Al  3.99873  6.05764  -10.10714  -0.00153  -0.00125  0.00125  0
Al  6.05762  3.99875  -10.10713  -0.00125  -0.00153  0.00125  0
Al  4.01057  4.01058  -4.03546  -0.00031  -0.00031  -0.00052  0
Al  6.05348  6.05348  -4.05622  -0.00071  -0.00071  0.00007  0
Al  4.01039  6.07626  -6.05376  0.00028  -0.00089  0.00064  0
Al  6.07626  4.0104  -6.05377  -0.00089  0.00028  0.00064  0
Al  4.02927  4.02928  -0.00843  0.00038  0.00038  -0.00148  0
Al  6.06798  6.068  0.00026  -0.00067  -0.00067  -0.00003  0
Al  4.0213  6.07887  -2.03483  -0.00054  -0.0003  -0.00058  0
Al  6.07884  4.0213  -2.03483  -0.0003  -0.00054  -0.00058  0
Al  4.03438  4.03438  4.08111  -0.00122  -0.00122  -0.00035  0
Al  6.0639  6.0639  4.03914  -0.00077  -0.00077  -0.00077  0
Al  4.03437  6.10587  2.00964  -0.00122  -0.00035  -0.00122  0
Al  6.10586  4.03438  2.00964  -0.00035  -0.00122  -0.00122  0
