350
#forces [124 174 66] --- created by Molecular Workbench, http://mw.concord.org
Ne  -8.95355  -8.60555  -8.96788  -0.00005  -0.0004  -0.00012  0
Ne  -6.80142  -6.66028  -9.01236  0.00057  0.00016  -0.00077  0
Ne  -8.89221  -6.4965  -11.08262  0.00006  -0.00037  -0.00017  0
Ne  -6.6435  -8.858  -11.07249  0  0  0  0
Ne  -8.858  -8.858  -4.429  0  0  0  0
Ne  -6.6435  -6.6435  -4.429  0  0  0  0
Ne  -8.858  -6.6435  -6.6435  0  0  0  0
Ne  -6.6435  -8.858  -6.6435  0  0  0  0
Ne  -8.858  -8.858  0  0  0  0  0
Ne  -6.6435  -6.6435  0  0  0  0  0
Ne  -8.858  -6.6435  -2.2145  0  0  0  0
Ne  -6.6435  -8.858  -2.2145  0  0  0  0
Ne  -6.13205  -6.76029  4.52601  0.00092  -0.00219  0.00128  0
Ne  -8.76777  -6.64715  2.26119  -0.00089  -0.00001  -0.00091  0
Ne  -6.6435  -8.858  2.2145  0  0  0  0
Ne  -8.858  -4.429  -8.858  0  0  0  0
Ne  -6.6435  -2.2145  -8.858  0  0  0  0
Ne  -8.858  -2.2145  -11.07249  0  0  0  0
Ne  -6.6435  -4.429  -11.07249  0  0  0  0
Ne  -8.858  -4.429  -4.429  0  0  0  0
Ne  -6.6435  -2.2145  -4.429  0  0  0  0
Ne  -8.858  -2.2145  -6.6435  0  0  0  0
Ne  -6.6435  -4.429  -6.6435  0  0  0  0
Ne  -8.858  -4.429  0  0  0  0  0
Ne  -6.6435  -2.2145  0  0  0  0  0
Ne  -8.858  -2.2145  -2.2145  0  0  0  0
Ne  -6.64315  -4.59934  -2.26849  -0.00093  -0.00068  0.00004  0
Ne  -8.31543  -4.50592  4.82147  0.00059  -0.00066  0.00043  0
Ne  -6.14949  -2.64129  4.58014  0.00088  0.00011  -0  0
Ne  -8.44382  -2.34017  2.46637  0.00132  -0.00033  -0.00007  0
Ne  -6.38828  -4.51155  2.30958  0.00085  0.00053  0.0005  0
Ne  -8.858  0  -8.858  0  0  0  0
Ne  -6.6435  2.2145  -8.858  0  0  0  0
Ne  -8.4032  2.23644  -11.27045  0.00102  0.00034  0.00073  0
Ne  -6.6435  0  -11.07249  0  0  0  0
Ne  -8.858  0  -4.429  0  0  0  0
Ne  -6.6435  2.2145  -4.429  0  0  0  0
Ne  -8.858  2.2145  -6.6435  0  0  0  0
Ne  -6.84496  -0.04694  -6.62141  -0.00017  0.00051  -0.00001  0
Ne  -8.858  0  0  0  0  0  0
Ne  -6.6435  2.2145  0  0  0  0  0
Ne  -8.858  2.2145  -2.2145  0  0  0  0
Ne  -6.6435  0  -2.2145  0  0  0  0
Ne  -8.39856  0.02266  4.44463  0.0017  0.00048  -0.00023  0
Ne  -6.6435  2.2145  4.429  0  0  0  0
Ne  -8.858  2.2145  2.2145  0  0  0  0
Ne  -6.69123  -0.00058  2.09203  0.00107  -0.00027  0.00054  0
Ne  -8.7457  4.6943  -8.8134  0.00041  -0.0012  0.00018  0
Ne  -6.54952  6.647  -8.57969  -0.00044  -0.00031  0.00028  0
Ne  -6.41413  4.41966  -10.81187  -0.00073  -0.00004  -0.00065  0
Ne  -8.75423  4.27978  -4.25359  -0.00142  -0.00036  0.00019  0
Ne  -6.59792  6.47596  -4.1263  0.00049  -0.00023  0.00052  0
Ne  -8.71303  6.3308  -6.3751  0.00032  0.00096  -0.00082  0
Ne  -6.68544  4.22559  -6.58875  0.00036  0.00015  -0.00002  0
Ne  -8.73139  4.39937  0.20512  0.00072  -0.00032  0.00022  0
Ne  -6.65966  6.51906  0.01304  -0.00016  -0.00054  -0.00044  0
Ne  -8.69614  6.28537  -1.98918  -0.00007  0.00013  0.00157  0
Ne  -6.66187  4.35785  -2.09451  -0.00039  0.00009  0.00025  0
Ne  -8.858  4.429  4.429  0  0  0  0
Ne  -6.6435  6.6435  4.429  0  0  0  0
Ne  -8.858  6.6435  2.2145  0  0  0  0
Ne  -6.6435  4.429  2.2145  0  0  0  0
Ne  -4.35927  -8.72172  -8.73383  -0.00088  0.00097  0.00005  0
Ne  -2.36682  -6.56303  -8.79795  0.00024  0.00033  0.00006  0
Ne  -4.429  -6.6435  -11.07249  0  0  0  0
Ne  -2.32386  -8.75941  -10.61918  -0.00051  -0.00109  0.00005  0
Ne  -4.429  -8.858  -4.429  0  0  0  0
Ne  -2.2145  -6.6435  -4.429  0  0  0  0
Ne  -4.429  -6.6435  -6.6435  0  0  0  0
Ne  -2.2145  -8.858  -6.6435  0  0  0  0
Ne  -4.60396  -8.97934  0.03104  -0.00165  0.00043  -0.00014  0
Ne  -2.36988  -6.53414  -0.25282  -0.00002  0.00117  -0.00057  0
Ne  -4.429  -6.6435  -2.2145  0  0  0  0
Ne  -2.21484  -8.81389  -2.35787  -0.0001  -0.00042  0.00072  0
Ne  -3.92659  -9.27513  3.54755  -0.00111  -0.0005  0.00013  0
Ne  -2.03875  -6.68515  3.855  0.00049  0.00023  0.00098  0
Ne  -4.54601  -6.77517  1.9867  0.00046  0.00021  0.00048  0
Ne  -2.00328  -9.11572  1.2895  0.00053  -0.00044  -0.00049  0
Ne  -4.53595  -4.35702  -8.82548  0.00033  0.00072  -0.00056  0
Ne  -2.38457  -2.17207  -8.56  0.00036  -0.00034  -0.00048  0
Ne  -4.47559  -2.15173  -10.90564  -0.00013  -0.00043  -0.00001  0
Ne  -2.26043  -4.24134  -10.87494  0.00105  0.00088  0.00056  0
Ne  -4.61183  -4.43898  -4.58726  0.00014  0.00012  0.00013  0
Ne  -2.40621  -2.44749  -4.22749  0.00032  0.00053  -0.00044  0
Ne  -4.53007  -2.25393  -6.70156  0.0001  -0.00004  0.0011  0
Ne  -2.29641  -4.35056  -6.55224  -0.00011  0.00096  -0.00023  0
Ne  -4.65844  -4.45659  -0.11852  0.00016  0.00065  0.00061  0
Ne  -2.64597  -2.24117  -0.15832  0.00094  0.00061  0.0009  0
Ne  -4.71644  -2.32689  -2.08083  0.00091  0.00109  -0.00021  0
Ne  -2.47947  -4.38534  -2.09875  0.00039  -0.00049  0.00094  0
Ne  -4.05851  -4.66674  4.19737  -0.00006  0.00016  0.00035  0
Ne  -2.01539  -2.25493  3.68595  0.00027  0.00021  0.00144  0
Ne  -4.5283  -2.25858  2.04452  0.00127  -0.00153  0.00046  0
Ne  -2.3916  -4.50711  1.66965  -0.00079  0.00121  0.0014  0
Ne  -4.58261  -0.02904  -8.61866  0.00022  -0.00103  -0.00023  0
Ne  -2.27407  2.3031  -8.70013  -0.00073  0.00015  0.00117  0
Ne  -4.52047  2.00497  -10.92445  0.00085  -0.00005  -0.00031  0
Ne  -2.33557  -0.04419  -10.59258  0.00015  0.00035  -0.00011  0
Ne  -4.60924  -0.22909  -4.42245  -0.00004  -0.0003  -0.00031  0
Ne  -2.36247  2.02244  -4.42522  -0.00046  -0.0005  0.00094  0
Ne  -4.5731  1.97189  -6.60381  0.00019  0.00102  -0.00048  0
Ne  -2.32451  -0.11249  -6.47902  -0.00062  -0.00065  -0.00014  0
Ne  -4.56097  -0.04039  0.065  -0.0009  -0.00045  -0.00014  0
Ne  -2.34667  2.22651  0.03989  0.00063  -0.00011  0.00058  0
Ne  -4.429  2.2145  -2.2145  0  0  0  0
Ne  -2.40737  -0.21389  -2.32963  0.00036  -0.00017  0.00077  0
Ne  -4.73741  -0.01019  4.21512  0.00231  0.00046  0.00004  0
Ne  -2.2145  2.2145  4.429  0  0  0  0
Ne  -4.429  2.2145  2.2145  0  0  0  0
Ne  -2.04287  0.22316  2.19977  0.0004  0.00126  0.00003  0
Ne  -4.55206  4.20441  -8.50796  0.0003  -0.00001  0.0003  0
Ne  -2.48056  6.34248  -8.788  -0.00033  0.00035  0.00068  0
Ne  -4.429  6.6435  -11.07249  0  0  0  0
Ne  -2.3669  4.26675  -10.92344  0.00033  0.00033  0.00037  0
Ne  -4.3908  4.43509  -4.35323  0.00008  -0.0001  -0.00014  0
Ne  -2.2145  6.6435  -4.429  0  0  0  0
Ne  -4.55755  6.53006  -6.43873  0.00003  0.0004  0.00016  0
Ne  -2.40271  4.2298  -6.47429  -0.00038  -0.00046  -0.00008  0
Ne  -4.56256  4.48414  -0.19317  0.00019  0.00167  -0.00064  0
Ne  -2.2145  6.6435  0  0  0  0  0
Ne  -4.33683  6.60063  -2.14763  -0.00024  -0.00091  0.00052  0
Ne  -2.2145  4.429  -2.2145  0  0  0  0
Ne  -4.76522  4.33127  4.76454  0.00053  -0.00039  -0.00002  0
Ne  -2.2145  6.6435  4.429  0  0  0  0
Ne  -4.43843  6.24665  2.18626  -0.00016  -0.0009  0.00052  0
Ne  -2.23517  4.11938  2.22051  -0.00001  -0.00039  -0.00105  0
Ne  0.10027  -8.78301  -8.99924  0.00004  0.00053  -0.00074  0
Ne  1.86375  -6.41763  -8.56025  0.00047  -0.00076  0.00028  0
Ne  -0.33124  -6.60819  -11.00899  -0.00005  -0.00084  -0.00046  0
Ne  1.85295  -8.68812  -11.39961  -0.00098  0.00042  -0.00011  0
Ne  -0.05885  -8.93603  -4.40177  0.00125  -0.00074  0.00007  0
Ne  1.92377  -6.62124  -4.0158  -0.00004  0.00128  0.00011  0
Ne  -0.28509  -6.53032  -6.62779  -0.00055  0.00049  0.00029  0
Ne  1.69347  -8.63061  -6.62025  0.00014  -0.00077  0.00111  0
Ne  0.38528  -8.89109  -0.44318  0.00013  -0.00138  0.00035  0
Ne  2.44543  -6.9403  -0.99597  0.00042  -0.00022  -0.00008  0
Ne  -0.32985  -6.49597  -2.29073  0.00011  0.00036  -0.0001  0
Ne  2.31501  -9.31348  -2.69267  0.00039  -0.00026  -0.00176  0
Ne  0.03813  -9.65816  3.43773  -0.00074  -0.00096  -0.0001  0
Ne  1.04092  -7.00965  4.23868  -0.00093  0.00007  -0.00138  0
Ne  -0.09441  -6.90475  1.61428  -0.00113  -0.00019  0.00021  0
Ne  2.41653  -8.13051  1.73161  -0.00015  0.00092  -0.00066  0
Ne  -0.27005  -4.26311  -8.60945  -0.00034  -0.00001  -0.00005  0
Ne  1.97317  -2.32593  -8.53737  -0.00016  -0.00014  0.00055  0
Ne  -0.17122  -2.24699  -10.99839  0.00071  -0.00001  -0.00012  0
Ne  1.69314  -4.50765  -10.91837  -0.00002  0.00047  -0.00061  0
Ne  -0.05208  -4.33932  -4.19237  -0.00039  0.00091  0.00002  0
Ne  2.18008  -2.30894  -4.18444  0.00022  -0.00051  -0.00097  0
Ne  -0.09094  -2.14541  -6.50226  -0.0004  0.00028  -0.00008  0
Ne  1.92187  -4.31788  -6.42185  -0.00078  -0.00025  -0.00023  0
Ne  -0.09918  -4.39575  0.03668  0.00054  -0.00073  -0.00021  0
Ne  2.01194  -2.08333  -0.12165  -0.00037  0.00085  -0.00019  0
Ne  -0.11521  -2.13193  -2.07179  -0  0.00122  -0.00093  0
Ne  2.0039  -4.35243  -2.0578  -0.0008  0.00079  -0.00066  0
Ne  -0.02854  -4.38766  3.41406  -0.00058  -0.00075  0.00143  0
Ne  2.47341  -2.51859  2.92837  -0.00135  0.00019  -0.00149  0
Ne  0.03071  -2.07296  1.81293  -0.00087  0.0011  -0.00037  0
Ne  2.2439  -5.37679  1.55734  -0.00039  -0.00156  0.00047  0
Ne  0  0  -8.858  0  0  0  0
Ne  2.2145  2.2145  -8.858  0  0  0  0
Ne  -0.05472  2.28154  -10.86406  0.00002  0.00039  0.00018  0
Ne  1.89652  -0.02484  -11.01832  -0.00034  0.0007  -0.00033  0
Ne  -0.26484  -0.11668  -4.43806  0.00128  0.00002  -0.00064  0
Ne  2.2145  2.2145  -4.429  0  0  0  0
Ne  0  2.2145  -6.6435  0  0  0  0
Ne  2.01797  -0.06901  -6.33266  -0.00033  -0.00083  -0.00133  0
Ne  -0.11035  0.24418  -0.2451  0.00005  -0.00083  -0.00059  0
Ne  1.92807  2.25569  -0.39096  -0.00008  0.0002  -0.00034  0
Ne  -0.23834  2.0513  -2.50379  -0.00063  -0.00025  0.00097  0
Ne  2.20334  -0.14249  -2.49194  0.00038  -0.00003  -0.0002  0
Ne  0.28889  -0.22352  4.17872  0.00104  -0.00083  -0.00008  0
Ne  2.74659  2.33929  4.42186  0.0019  0.00011  0.0004  0
Ne  0.15325  2.22085  2.13401  0.00139  0.00029  0.00051  0
Ne  2.5417  0.38762  1.90108  0.00079  -0.00038  0.00076  0
Ne  -0.12326  4.22821  -8.80438  -0.00133  -0.00071  -0.00058  0
Ne  2.16721  6.46077  -8.67277  -0.00064  0.0003  -0.00009  0
Ne  -0.20946  6.57017  -10.71555  -0.00078  -0.0004  -0.0001  0
Ne  2.06706  4.45595  -10.8778  0.00171  -0  0.00009  0
Ne  -0.34527  4.04175  -4.57557  0.00086  -0.00052  -0.00136  0
Ne  1.86491  6.28783  -4.54719  -0.00074  0.00037  -0.00074  0
Ne  -0.36734  6.21922  -6.55714  -0.0009  -0.00084  0.00005  0
Ne  2.09187  4.30902  -6.55151  -0.00031  -0.00014  0.00099  0
Ne  -0.19883  4.34553  -0.0381  -0.00008  -0.00009  -0.00043  0
Ne  1.39937  6.82536  -0.12753  0.00022  0.00157  -0.00172  0
Ne  -0.13373  6.63924  -2.78921  0.00198  -0.00199  0.00117  0
Ne  1.81055  4.33584  -2.43672  -0.00052  0.00055  0.00073  0
Ne  0.03224  4.27553  4.06141  0.00088  -0.00062  0.00058  0
Ne  1.5514  7.40554  4.16293  -0.00101  -0.00072  -0.00176  0
Ne  -0.28357  6.41242  2.27595  -0.00057  -0.00058  0.0011  0
Ne  2.97582  5.33205  2.16308  -0.00023  -0.00114  -0.00118  0
Ne  3.4303  -8.95173  -9.05858  0.00042  -0.00006  0.00036  0
Ne  5.69593  -7.13966  -8.37086  -0.00076  -0.00004  0.00031  0
Ne  3.90871  -6.57509  -10.77939  -0.00049  0.00059  0.00018  0
Ne  4.11242  -9.59944  -4.99611  0.00048  -0.00057  0.00002  0
Ne  6.5166  -7.6483  -5.52888  -0.00064  -0.00058  -0.0009  0
Ne  3.89473  -6.82669  -6.13472  0.00109  0.00032  -0.00001  0
Ne  5.72878  -10.13855  -7.44877  0.00042  -0.00057  0.00012  0
Ne  4.39081  -9.17157  -0.5723  0.00108  0.0014  0.00008  0
Ne  6.7356  -7.32592  -0.88174  0.00059  -0.00039  -0.00021  0
Ne  4.52385  -7.28882  -3.20138  -0.00047  0.00029  0.00023  0
Ne  6.51938  -9.40738  -3.05888  -0.00003  0.00121  0.00006  0
Ne  3.85472  -7.48598  4.64374  -0.00039  -0.00095  -0.00023  0
Ne  6.36023  -5.84525  4.06358  -0.0003  -0.00114  -0.00151  0
Ne  4.94559  -6.7251  1.45958  -0.00066  0.00069  0.00023  0
Ne  7.4548  -8.71874  1.61309  0.00022  -0.0012  -0.0004  0
Ne  3.997  -4.53207  -8.5519  0.0009  0.00151  0.00001  0
Ne  6.31425  -2.5951  -8.55569  0.00066  -0.00036  0.00022  0
Ne  3.90158  -2.36511  -10.71181  -0.0011  0.00002  -0.00037  0
Ne  6.13232  -4.64768  -10.76848  -0.00131  -0.00053  0.00039  0
Ne  4.19342  -4.45276  -4.19314  -0.00078  -0.00023  -0.00033  0
Ne  6.56155  -2.37353  -4.35356  0.00011  0.00063  -0.00069  0
Ne  4.15228  -2.47526  -6.37327  0.00022  -0.00037  -0.0002  0
Ne  6.004  -4.83074  -6.43649  0.00012  0.00046  0.00079  0
Ne  5.01312  -4.93241  -1.37402  -0.00029  -0.00059  0.00054  0
Ne  7.40228  -3.27932  -1.45895  0.00057  0.00021  -0.00028  0
Ne  4.27521  -2.27966  -2.10711  -0.00025  0.00027  -0.00066  0
Ne  6.79503  -5.52586  -3.48082  0.00047  0.00013  -0.00035  0
Ne  3.65887  -4.67506  4.16287  0.0005  0.0013  -0.00039  0
Ne  6.42029  -3.05554  3.30166  0.00053  0.00079  -0.00074  0
Ne  4.42984  -3.60409  1.00847  -0.00015  0.00122  -0.00109  0
Ne  7.34985  -4.96846  1.16863  0.00129  -0.00073  0.00025  0
Ne  4.11463  -0.12495  -8.6047  -0.00007  -0.00044  -0.00016  0
Ne  6.08311  1.90981  -8.77138  -0.00011  0.00048  0.00025  0
Ne  4.00042  2.04777  -10.99731  0.00074  -0.00023  0.00024  0
Ne  6.02342  -0.24233  -10.84587  -0.00025  0.00082  -0.00136  0
Ne  4.53638  -0.0519  -4.11992  0.00034  -0.00107  0.00025  0
Ne  6.77268  2.53108  -4.22977  -0.0011  0.00005  -0.00028  0
Ne  4.35361  2.20514  -6.4356  -0.00064  -0.00031  -0.00019  0
Ne  6.09743  -0.2337  -6.43237  0.00086  -0.00013  -0.00002  0
Ne  4.17408  0.33497  -0.38901  -0.00007  -0.0006  0.00083  0
Ne  6.64533  2.19729  -0.62716  -0.00002  -0.00035  0.00062  0
Ne  4.33123  2.59534  -2.46286  0.00058  -0.00108  0.0003  0
Ne  6.70156  -0.38713  -2.14991  0.00113  0.0002  -0.00141  0
Ne  5.3039  -2.54747  6.18311  -0.00067  0.00135  0.0006  0
Ne  3.31202  -0.55662  4.86248  -0.0012  0.00016  -0.00019  0
Ne  4.21967  2.70114  1.58929  -0.00083  -0.00116  -0.00076  0
Ne  6.13066  -1.52235  0.43224  0.00073  -0.00071  -0.0007  0
Ne  4.20327  4.22049  -8.66318  0.00122  -0.00076  0.00083  0
Ne  6.8389  5.89669  -9.06247  0.0004  0.00042  -0.0008  0
Ne  4.42692  6.29938  -11.14286  -0.00052  0.00012  0.00005  0
Ne  6.33789  3.75393  -10.98232  0.00009  0.00038  -0.00022  0
Ne  4.17214  4.54574  -4.58214  -0.00006  -0.00021  0.00024  0
Ne  5.9098  8.12393  -4.18206  -0.00044  -0.00034  0.00091  0
Ne  4.35591  6.40174  -6.69182  -0.00098  -0.00053  -0.00091  0
Ne  6.3484  4.39718  -6.50884  -0.00082  0.00046  -0.00124  0
Ne  3.91336  4.46108  -0.45566  -0.00009  -0.00081  -0.00011  0
Ne  6.44064  5.47951  0.78932  -0.00061  0.00012  -0.0003  0
Ne  3.73361  6.63998  -2.34546  -0.00116  0.00043  -0.00009  0
Ne  6.34836  4.66998  -2.42136  0.00065  -0.00008  -0.00054  0
Ne  3.73239  5.53416  5.0838  0.00034  -0.00114  0.00087  0
Ne  3.95174  7.66092  0.67515  -0.00056  0.00016  -0.00146  0
Ne  5.47425  6.76298  3.25646  -0.00104  -0.00017  -0.00022  0
O  -1.84918  -0.21092  5.03812  0.00107  -0.00009  -0.00012  0
O  5.28573  -5.10375  5.99583  -0.00028  -0.00125  0.00068  0
Ar  -2.775  -2.77722  6.78845  -0.00052  0.00085  0.0002  0
C  3.06057  8.50054  -5.39426  -0.00107  -0.00014  -0.00013  0
C  1.80102  8.37233  -5.98266  -0.00039  -0.00026  0.00011  0
C  0.64793  8.4357  -5.18509  0.00018  0.00135  -0.00081  0
C  0.7658  8.62088  -3.80181  -0.00001  -0.00056  -0.00101  0
C  2.02615  8.64798  -3.21163  -0.00054  0.00047  -0.00131  0
C  3.16647  8.70858  -4.01261  -0.00133  0.00099  -0.00094  0
H  3.94247  8.54741  -6.01528  -0.00118  0.00006  -0.00009  0
H  1.71724  8.21158  -7.048  -0.00057  -0.00111  0.00023  0
H  -0.32772  8.33653  -5.63879  0.00024  0.00111  -0.00071  0
H  -0.12044  8.67022  -3.18733  -0.00012  0.00065  -0.00139  0
H  2.11904  8.79063  -2.14448  -0.00055  -0.00097  -0.00117  0
H  4.13883  8.72998  -3.55879  -0.00134  0.00189  -0.00111  0
C  2.55573  -2.70933  6.29052  -0.00036  -0.00035  0.00008  0
C  2.32306  -4.11644  6.89343  -0.00003  0.00006  0.00043  0
C  1.21897  -4.85111  6.08826  0.0005  -0.00045  0.00053  0
C  -0.06728  -4.02581  6.11185  0.00029  -0.00088  0.00001  0
C  0.19631  -2.66079  5.48409  0.00021  -0.00054  0.00026  0
C  1.2366  -1.9216  6.3046  0.00004  -0.00073  0.00033  0
H  3.28996  -2.19024  6.8691  -0.00019  -0.00014  -0.00033  0
H  2.90105  -2.8048  5.28172  -0.00067  -0.00056  -0  0
H  3.2329  -4.67943  6.84723  0.00017  0.0003  0.00082  0
H  2.01447  -4.02235  7.9135  -0.0003  0.00036  0.00033  0
H  1.03356  -5.80877  6.52686  0.0007  -0.00039  0.00078  0
H  1.54073  -4.9782  5.07606  0.00074  -0.00069  0.00062  0
H  -0.8293  -4.53209  5.55712  0.00074  -0.00101  -0.00042  0
H  -0.39004  -3.89759  7.1234  -0.00027  -0.00112  -0.00007  0
H  -0.71173  -2.09647  5.46473  0.0002  -0.00064  0.0004  0
H  0.55584  -2.78874  4.48801  0.0002  -0.00026  0.00024  0
H  1.39624  -0.95183  5.88684  -0.00008  -0.00064  0.00057  0
H  0.89227  -1.82395  7.3121  0.00006  -0.00102  0.00035  0
C  7.83077  0.36355  -4.41366  -0.0011  0.00106  0.00028  0
H  8.33207  0.90893  -3.64033  -0.00134  0.00482  -0.00233  0
H  8.12312  -0.66582  -4.37185  0.00389  0.00247  0.00133  0
H  6.77204  0.43692  -4.27615  -0.00102  -0.00364  0.00334  0
H  8.09449  0.77112  -5.36799  -0.0059  0.00052  -0.00126  0
C  22.63383  0.68322  -0  0  0  0  0
C  22.63383  -0.68678  -0  0  0  0  0
C  15.73182  0.68322  -0  0  0  0  0
C  15.73182  -0.68678  -0  0  0  0  0
C  19.86783  -0.00178  3.451  0  0  0  0
C  18.49783  -0.00178  3.451  0  0  0  0
C  19.86783  -0.00178  -3.451  0  0  0  0
C  18.49783  -0.00178  -3.451  0  0  0  0
C  19.18283  3.44922  0.685  0  0  0  0
C  19.18283  3.44922  -0.685  0  0  0  0
C  19.18283  -3.45277  0.685  -0.01  0  0  0
C  19.18283  -3.45277  -0.685  0  0  0  0
C  22.18683  1.40722  1.172  0  0  0  0
C  22.18683  1.40722  -1.172  0  0  0  0
C  22.18683  -1.41078  1.172  0  0  0  0
C  22.18683  -1.41078  -1.172  0  0  0  0
C  16.17883  1.40722  1.172  0  0  0  0
C  16.17883  1.40722  -1.172  0  0  0  0
C  16.17883  -1.41078  1.172  0  0  0  0
C  16.17883  -1.41078  -1.172  0  0  0  0
C  20.59183  1.17022  3.004  0  0  0  0
C  20.59183  -1.17378  3.004  -0.01  0  0  0
C  17.77383  1.17022  3.004  0  0  0  0
C  17.77383  -1.17378  3.004  -0.01  0  0  0
C  20.59183  1.17022  -3.004  0  0  0  0
C  20.59183  -1.17378  -3.004  -0.02  0  0  0
C  17.77383  1.17022  -3.004  0  0  0  0
C  17.77383  -1.17378  -3.004  0  0  0  0
C  20.35483  3.00222  1.409  0  0  0  0
C  18.01083  3.00222  1.409  0  0  0  0
C  20.35483  3.00222  -1.409  0  0  0  0
C  18.01083  3.00222  -1.409  -0.01  0  0  0
C  20.35483  -3.00577  1.409  -0.01  0  0  0
C  18.01083  -3.00577  1.409  0  0  0  0
C  20.35483  -3.00577  -1.409  -0.01  0  0  0
C  18.01083  -3.00577  -1.409  0  0  0  0
C  21.76383  0.72222  2.28  -0.01  0  0  0
C  21.76383  0.72222  -2.28  0  0  0  0
C  21.76383  -0.72578  2.28  0  0  0  0
C  21.76383  -0.72578  -2.28  0  0  0  0
C  16.60183  0.72222  2.28  0  0  0  0
C  16.60183  0.72222  -2.28  -0.01  0  0  0
C  16.60183  -0.72578  2.28  -0.01  0  0  0
C  16.60183  -0.72578  -2.28  0  0  0  0
C  19.90683  2.27822  2.581  0  0  0  0
C  19.90683  -2.28178  2.581  0  0  0  0
C  18.45883  2.27822  2.581  0  0  0  0
C  18.45883  -2.28178  2.581  0  0  0  0
C  19.90683  2.27822  -2.581  0  0  0  0
C  19.90683  -2.28178  -2.581  0  0  0  0
C  18.45883  2.27822  -2.581  0  0  0  0
C  18.45883  -2.28178  -2.581  0  0  0  0
C  21.46283  2.57922  0.724  0  0  0  0
C  16.90283  2.57922  0.724  0  0  0  0
C  21.46283  2.57922  -0.724  0  0  0  0
C  16.90283  2.57922  -0.724  -0.01  0  0  0
C  21.46283  -2.58278  0.724  -0.01  0  0  0
C  16.90283  -2.58278  0.724  -0.01  0  0  0
C  21.46283  -2.58278  -0.724  0  0  0  0
C  16.90283  -2.58278  -0.724  0  0  0  0
bond 255 256 4.5 1.39962
bond 256 257 4.5 1.4
bond 257 258 4.5 1.39962
bond 258 259 4.5 1.39962
bond 259 260 4.5 1.4
bond 260 255 4.5 1.39962
bond 255 261 4.5 1.08
bond 256 262 4.5 1.0806
bond 257 263 4.5 1.0806
bond 258 264 4.5 1.08
bond 259 265 4.5 1.0806
bond 260 266 4.5 1.0806
bond 267 268 4.5 1.53901
bond 268 269 4.5 1.5411
bond 269 270 4.5 1.54184
bond 270 271 4.5 1.53984
bond 271 272 4.5 1.54102
bond 272 267 4.5 1.54358
bond 267 273 4.5 1.07033
bond 267 274 4.5 1.07046
bond 268 275 4.5 1.07053
bond 268 276 4.5 1.07018
bond 269 277 4.5 1.06981
bond 269 278 4.5 1.06977
bond 270 279 4.5 1.07033
bond 270 280 4.5 1.0696
bond 271 281 4.5 1.07144
bond 271 282 4.5 1.0695
bond 272 283 4.5 1.06966
bond 272 284 4.5 1.06987
bond 285 286 4.5 1.07054
bond 285 287 4.5 1.07082
bond 285 288 4.5 1.06935
bond 285 289 4.5 1.07043
bond 290 291 4.5 1.37
bond 290 302 4.5 1.4483
bond 290 303 4.5 1.4483
bond 291 304 4.5 1.4483
bond 291 305 4.5 1.4483
bond 292 293 4.5 1.37
bond 292 306 4.5 1.4483
bond 292 307 4.5 1.4483
bond 293 308 4.5 1.4483
bond 293 309 4.5 1.4483
bond 294 295 4.5 1.37
bond 294 310 4.5 1.4483
bond 294 311 4.5 1.4483
bond 295 312 4.5 1.4483
bond 295 313 4.5 1.4483
bond 296 297 4.5 1.37
bond 296 314 4.5 1.4483
bond 296 315 4.5 1.4483
bond 297 316 4.5 1.4483
bond 297 317 4.5 1.4483
bond 298 299 4.5 1.37
bond 298 318 4.5 1.4483
bond 298 319 4.5 1.4483
bond 299 320 4.5 1.4483
bond 299 321 4.5 1.4483
bond 300 301 4.5 1.37
bond 300 322 4.5 1.4483
bond 300 323 4.5 1.4483
bond 301 324 4.5 1.4483
bond 301 325 4.5 1.4483
bond 302 326 4.5 1.36961
bond 302 342 4.5 1.44861
bond 303 327 4.5 1.36961
bond 303 344 4.5 1.44861
bond 304 328 4.5 1.36961
bond 304 346 4.5 1.44861
bond 305 329 4.5 1.36961
bond 305 348 4.5 1.44861
bond 306 330 4.5 1.36961
bond 306 343 4.5 1.44861
bond 307 331 4.5 1.36961
bond 307 345 4.5 1.44861
bond 308 332 4.5 1.36961
bond 308 347 4.5 1.44861
bond 309 333 4.5 1.36961
bond 309 349 4.5 1.44861
bond 310 326 4.5 1.44861
bond 310 334 4.5 1.36961
bond 311 328 4.5 1.44861
bond 311 335 4.5 1.36961
bond 312 330 4.5 1.44861
bond 312 336 4.5 1.36961
bond 313 332 4.5 1.44861
bond 313 337 4.5 1.36961
bond 314 327 4.5 1.44861
bond 314 338 4.5 1.36961
bond 315 329 4.5 1.44861
bond 315 339 4.5 1.36961
bond 316 331 4.5 1.44861
bond 316 340 4.5 1.36961
bond 317 333 4.5 1.44861
bond 317 341 4.5 1.36961
bond 318 334 4.5 1.44861
bond 318 342 4.5 1.36961
bond 319 336 4.5 1.44861
bond 319 343 4.5 1.36961
bond 320 338 4.5 1.44861
bond 320 344 4.5 1.36961
bond 321 340 4.5 1.44861
bond 321 345 4.5 1.36961
bond 322 335 4.5 1.44861
bond 322 346 4.5 1.36961
bond 323 337 4.5 1.44861
bond 323 347 4.5 1.36961
bond 324 339 4.5 1.44861
bond 324 348 4.5 1.36961
bond 325 341 4.5 1.44861
bond 325 349 4.5 1.36961
bond 326 328 4.5 1.448
bond 327 329 4.5 1.448
bond 330 332 4.5 1.448
bond 331 333 4.5 1.448
bond 334 336 4.5 1.448
bond 335 337 4.5 1.448
bond 338 340 4.5 1.448
bond 339 341 4.5 1.448
bond 342 344 4.5 1.448
bond 343 345 4.5 1.448
bond 346 348 4.5 1.448
bond 347 349 4.5 1.448
angle 255 256 257 50.0 2.09455
angle 256 257 258 50.0 2.09455
angle 257 258 259 50.0 2.09408
angle 258 259 260 50.0 2.09455
angle 259 260 255 50.0 2.09455
angle 260 255 256 50.0 2.09408
angle 255 256 262 50.0 2.09456
angle 256 257 263 50.0 2.09407
angle 257 258 264 50.0 2.09455
angle 258 259 265 50.0 2.09456
angle 259 260 266 50.0 2.09407
angle 260 255 261 50.0 2.09455
angle 267 268 269 50.0 1.91123
angle 268 269 270 50.0 1.91238
angle 269 270 271 50.0 1.90978
angle 270 271 272 50.0 1.91076
angle 271 272 267 50.0 1.91222
angle 272 267 268 50.0 1.91005
angle 273 267 274 50.0 1.90901
angle 275 268 276 50.0 1.9099
angle 277 269 278 50.0 1.91115
angle 279 270 280 50.0 1.90914
angle 281 271 282 50.0 1.90961
angle 283 272 284 50.0 1.91091
angle 272 267 273 50.0 1.91339
angle 272 267 274 50.0 1.90854
angle 268 267 273 50.0 1.9111
angle 268 267 274 50.0 1.91172
angle 267 268 275 50.0 1.91096
angle 267 268 276 50.0 1.91224
angle 269 268 275 50.0 1.91093
angle 269 268 276 50.0 1.90854
angle 268 269 277 50.0 1.91191
angle 268 269 278 50.0 1.91058
angle 270 269 277 50.0 1.90853
angle 270 269 278 50.0 1.90925
angle 269 270 279 50.0 1.91294
angle 269 270 280 50.0 1.91048
angle 271 270 279 50.0 1.91012
angle 271 270 280 50.0 1.91134
angle 270 271 281 50.0 1.90965
angle 270 271 282 50.0 1.91208
angle 272 271 281 50.0 1.91192
angle 272 271 282 50.0 1.90977
angle 271 272 283 50.0 1.91042
angle 271 272 284 50.0 1.91055
angle 267 272 283 50.0 1.9107
angle 267 272 284 50.0 1.909
angle 286 285 287 50.0 1.91087
angle 287 285 288 50.0 1.90829
angle 288 285 289 50.0 1.90931
angle 289 285 286 50.0 1.91186
angle 286 285 288 50.0 1.91278
angle 287 285 289 50.0 1.91069
angle 290 291 304 50.0 2.09428
angle 291 304 328 50.0 2.09435
angle 304 328 326 50.0 2.09456
angle 328 326 302 50.0 2.09456
angle 326 302 290 50.0 2.09435
angle 302 290 291 50.0 2.09428
angle 290 291 305 50.0 2.09428
angle 291 305 329 50.0 2.09435
angle 305 329 327 50.0 2.09456
angle 329 327 303 50.0 2.09456
angle 327 303 290 50.0 2.09435
angle 303 290 291 50.0 2.09428
angle 303 327 314 50.0 2.09385
angle 327 314 338 50.0 2.09494
angle 314 338 320 50.0 2.09385
angle 338 320 344 50.0 2.09494
angle 320 344 303 50.0 2.09385
angle 344 303 327 50.0 2.09494
angle 296 297 316 50.0 2.09428
angle 297 316 340 50.0 2.09435
angle 316 340 338 50.0 2.09456
angle 340 338 314 50.0 2.09456
angle 338 314 296 50.0 2.09435
angle 314 296 297 50.0 2.09428
angle 296 297 317 50.0 2.09428
angle 297 317 341 50.0 2.09435
angle 317 341 339 50.0 2.09456
angle 341 339 315 50.0 2.09456
angle 339 315 296 50.0 2.09435
angle 315 296 297 50.0 2.09428
angle 305 348 324 50.0 2.09385
angle 348 324 339 50.0 2.09494
angle 324 339 315 50.0 2.09385
angle 339 315 329 50.0 2.09494
angle 315 329 305 50.0 2.09385
angle 329 305 348 50.0 2.09494
angle 300 301 324 50.0 2.09428
angle 301 324 348 50.0 2.09435
angle 324 348 346 50.0 2.09456
angle 348 346 322 50.0 2.09456
angle 346 322 300 50.0 2.09435
angle 322 300 301 50.0 2.09428
angle 300 301 325 50.0 2.09428
angle 301 325 349 50.0 2.09435
angle 325 349 347 50.0 2.09456
angle 349 347 323 50.0 2.09456
angle 347 323 300 50.0 2.09435
angle 323 300 301 50.0 2.09428
angle 308 332 313 50.0 2.09385
angle 332 313 337 50.0 2.09494
angle 313 337 323 50.0 2.09385
angle 337 323 347 50.0 2.09494
angle 323 347 308 50.0 2.09385
angle 347 308 332 50.0 2.09494
angle 292 293 308 50.0 2.09428
angle 293 308 332 50.0 2.09435
angle 308 332 330 50.0 2.09456
angle 332 330 306 50.0 2.09456
angle 330 306 292 50.0 2.09435
angle 306 292 293 50.0 2.09428
angle 294 295 313 50.0 2.09428
angle 295 313 337 50.0 2.09435
angle 313 337 335 50.0 2.09456
angle 337 335 311 50.0 2.09456
angle 335 311 294 50.0 2.09435
angle 311 294 295 50.0 2.09428
angle 302 326 310 50.0 2.09385
angle 326 310 334 50.0 2.09494
angle 310 334 318 50.0 2.09385
angle 334 318 342 50.0 2.09494
angle 318 342 302 50.0 2.09385
angle 342 302 326 50.0 2.09494
angle 304 346 322 50.0 2.09385
angle 346 322 335 50.0 2.09494
angle 322 335 311 50.0 2.09385
angle 335 311 328 50.0 2.09494
angle 311 328 304 50.0 2.09385
angle 328 304 346 50.0 2.09494
angle 298 299 320 50.0 2.09428
angle 299 320 344 50.0 2.09435
angle 320 344 342 50.0 2.09456
angle 344 342 318 50.0 2.09456
angle 342 318 298 50.0 2.09435
angle 318 298 299 50.0 2.09428
angle 298 299 321 50.0 2.09428
angle 299 321 345 50.0 2.09435
angle 321 345 343 50.0 2.09456
angle 345 343 319 50.0 2.09456
angle 343 319 298 50.0 2.09435
angle 319 298 299 50.0 2.09428
angle 306 343 319 50.0 2.09385
angle 343 319 336 50.0 2.09494
angle 319 336 312 50.0 2.09385
angle 336 312 330 50.0 2.09494
angle 312 330 306 50.0 2.09385
angle 330 306 343 50.0 2.09494
angle 307 345 321 50.0 2.09385
angle 345 321 340 50.0 2.09494
angle 321 340 316 50.0 2.09385
angle 340 316 331 50.0 2.09494
angle 316 331 307 50.0 2.09385
angle 331 307 345 50.0 2.09494
angle 292 293 309 50.0 2.09428
angle 293 309 333 50.0 2.09435
angle 309 333 331 50.0 2.09456
angle 333 331 307 50.0 2.09456
angle 331 307 292 50.0 2.09435
angle 307 292 293 50.0 2.09428
angle 309 333 317 50.0 2.09385
angle 333 317 341 50.0 2.09494
angle 317 341 325 50.0 2.09385
angle 341 325 349 50.0 2.09494
angle 325 349 309 50.0 2.09385
angle 349 309 333 50.0 2.09494
angle 294 295 312 50.0 2.09428
angle 295 312 336 50.0 2.09435
angle 312 336 334 50.0 2.09456
angle 336 334 310 50.0 2.09456
angle 334 310 294 50.0 2.09435
angle 310 294 295 50.0 2.09428
torsion 255 256 257 263 100.0 3.14112
torsion 256 257 258 264 100.0 3.14159
torsion 257 258 259 265 100.0 3.14112
torsion 258 259 260 266 100.0 3.14112
torsion 259 260 255 261 100.0 3.14159
torsion 260 255 256 262 100.0 3.14112
torsion 290 291 304 346 1.0 2.51333
torsion 290 291 305 348 1.0 2.51333
torsion 291 290 302 342 1.0 2.51333
torsion 291 290 303 344 1.0 2.51333
torsion 292 293 308 347 1.0 2.51333
torsion 292 293 309 349 1.0 2.51333
torsion 293 292 306 343 1.0 2.51333
torsion 293 292 307 345 1.0 2.51333
torsion 294 295 312 330 1.0 2.51333
torsion 294 295 313 332 1.0 2.51333
torsion 295 294 310 326 1.0 2.51333
torsion 295 294 311 328 1.0 2.51333
torsion 296 297 316 331 1.0 2.51333
torsion 296 297 317 333 1.0 2.51333
torsion 297 296 314 327 1.0 2.51333
torsion 297 296 315 329 1.0 2.51333
torsion 298 299 320 338 1.0 2.51333
torsion 298 299 321 340 1.0 2.51333
torsion 299 298 318 334 1.0 2.51333
torsion 299 298 319 336 1.0 2.51333
torsion 300 301 324 339 1.0 2.51333
torsion 300 301 325 341 1.0 2.51333
torsion 301 300 322 335 1.0 2.51333
torsion 301 300 323 337 1.0 2.51333
torsion 334 336 312 330 1.0 2.51333
torsion 334 336 319 343 1.0 2.51323
torsion 336 334 310 326 1.0 2.51333
torsion 336 334 318 342 1.0 2.51323
torsion 335 337 313 332 1.0 2.51333
torsion 335 337 323 347 1.0 2.51323
torsion 337 335 311 328 1.0 2.51333
torsion 337 335 322 346 1.0 2.51323
torsion 338 340 316 331 1.0 2.51333
torsion 338 340 321 345 1.0 2.51323
torsion 340 338 314 327 1.0 2.51333
torsion 340 338 320 344 1.0 2.51323
torsion 339 341 317 333 1.0 2.51333
torsion 339 341 325 349 1.0 2.51323
torsion 341 339 315 329 1.0 2.51333
torsion 341 339 324 348 1.0 2.51323
torsion 304 328 326 302 1.0 1.04753
torsion 303 327 329 305 1.0 1.04753
torsion 306 330 332 308 1.0 1.04753
torsion 307 331 333 309 1.0 1.04753
torsion 342 344 303 327 1.0 2.51323
torsion 342 344 320 338 1.0 2.51333
torsion 344 342 302 326 1.0 2.51323
torsion 344 342 318 334 1.0 2.51333
torsion 343 345 321 340 1.0 2.51333
torsion 343 345 307 331 1.0 2.51323
torsion 345 343 319 336 1.0 2.51333
torsion 345 343 306 330 1.0 2.51323
torsion 346 348 324 339 1.0 2.51333
torsion 346 348 305 329 1.0 2.51323
torsion 348 346 322 335 1.0 2.51333
torsion 348 346 304 328 1.0 2.51323
torsion 347 349 309 333 1.0 2.51323
torsion 347 349 325 341 1.0 2.51333
torsion 349 347 308 332 1.0 2.51323
torsion 349 347 323 337 1.0 2.51333
