256
#symbol   rx   ry   rz   vx   vy   vz   charge   damp   ---  Molecular Workbench
Cu  -6.3188047  -6.2524424  -4.6916323  -0.0011795  -0.0018573  -0.0008198  0  0
Cu  -4.4175563  -4.4202743  -4.7543058  -0.0045467  -0.0028582  0.0009133  0  0
Cu  -6.2479029  -4.1957192  -6.5455627  -0.0007147  -0.0015696  -0.0015691  0  0
Cu  -4.5792189  -6.2184887  -6.5634313  0.0028503  -0.0058447  0.0011615  0  0
Cu  -6.3740339  -6.1430898  -1.2609518  0.0021404  -0.0059667  -0.0014926  0  0
Cu  -4.5178432  -4.2992063  -1.1688645  -0.0010621  -0.0021  -0.0002555  0  0
Cu  -6.3730597  -4.2536674  -2.9282219  0.0013508  0.0021989  -0.0026873  0  0
Cu  -4.4422665  -6.1279078  -2.9304478  -0.0029932  -0.0000113  0.0006169  0  0
Cu  -6.4853749  -6.131063  2.5521982  0.0009638  0.0007506  -0.0038397  0  0
Cu  -4.5762825  -4.5015297  2.5614755  0.0002338  -0.0014191  0.0034602  0  0
Cu  -6.3976912  -4.4749002  0.637076  0.0012452  0.004147  -0.0013277  0  0
Cu  -4.553144  -6.1990514  0.5877054  -0.001471  0.0031875  -0.0023155  0  0
Cu  -6.1988997  -6.5769916  6.2251372  0.0014329  -0.0004663  0.0005493  0  0
Cu  -4.3815722  -4.6343722  6.3368354  0.0050681  0.0035171  0.0027516  0  0
Cu  -6.3073149  -4.5555859  4.4978542  -0.0027229  -0.0007957  0.0010241  0  0
Cu  -4.5505242  -6.3612943  4.3774652  -0.0017914  -0.0003156  0.0025793  0  0
Cu  -6.3241758  -2.2768476  -4.806673  0.0005789  -0.0009476  0.0042605  0  0
Cu  -4.3856497  -0.5740975  -4.7738028  -0.0027551  -0.0005156  -0.0022872  0  0
Cu  -6.1136765  -0.438457  -6.8115573  0.0028218  0.001192  -0.0030384  0  0
Cu  -4.2681508  -2.5346076  -6.6390662  0.0025395  0.0004854  0.0007729  0  0
Cu  -6.2774105  -2.4589932  -1.1001354  0.0006034  -0.0015736  -0.0016501  0  0
Cu  -4.4733844  -0.8005903  -0.8969827  -0.0040467  -0.0015441  0.0011032  0  0
Cu  -6.2609773  -0.6436825  -2.8056521  -0.00382  -0.0008485  -0.0012097  0  0
Cu  -4.4900417  -2.4668055  -2.9936521  0.0026957  -0.0052938  -0.0003866  0  0
Cu  -6.3456082  -2.7468245  2.6526508  0.0039142  0.0010015  0.0020818  0  0
Cu  -4.4752159  -0.9526374  2.6432619  0.0014466  0.0012523  -0.0015641  0  0
Cu  -6.3989291  -0.8201255  0.9459307  -0.0039683  0.0000852  -0.0020803  0  0
Cu  -4.4910135  -2.6159801  0.8192585  -0.0044755  0.0008418  -0.0059719  0  0
Cu  -6.2293983  -2.8625517  6.4491343  -0.0035038  0.0033441  -0.0036823  0  0
Cu  -4.4103007  -1.0718246  6.4152617  0.0051031  0.0011748  0.0018432  0  0
Cu  -6.3306212  -0.9007918  4.4286423  0.0000706  0.0007142  -0.0043509  0  0
Cu  -4.5639768  -2.8164473  4.5314255  0.0034908  -0.0003431  0.0003798  0  0
Cu  -6.3475947  1.2175583  -4.6843686  0.0019938  -0.0016729  0.0037861  0  0
Cu  -4.469389  3.0477898  -4.5665741  -0.0006801  -0.0053305  -0.0033065  0  0
Cu  -6.1932278  3.1142182  -6.4664702  0.0035065  -0.0009934  -0.0006476  0  0
Cu  -4.3071737  1.3076829  -6.6236062  -0.0034484  -0.0007277  -0.0015516  0  0
Cu  -6.2741737  0.9980539  -0.8295951  0.0016756  -0.0014329  -0.0018148  0  0
Cu  -4.5089498  2.8586204  -0.9459299  0.0021774  0.0023798  -0.0013335  0  0
Cu  -6.2271895  3.0006351  -2.6569891  0.0021818  0.0048548  -0.0006789  0  0
Cu  -4.46806  1.1047313  -2.8060751  0.0006058  0.0007302  0.0011035  0  0
Cu  -6.2976313  1.0515962  2.5996611  0.0007576  0.0012869  0.0005842  0  0
Cu  -4.4724607  2.7721541  2.6308897  -0.0015061  -0.0040454  -0.0023331  0  0
Cu  -6.3709002  2.9071374  0.8031085  -0.0017546  -0.003896  0.0037287  0  0
Cu  -4.4666681  0.9596478  0.9150147  0.0017738  -0.0022045  -0.0004336  0  0
Cu  -6.2382913  0.8958035  6.2439046  -0.0011794  -0.0003215  -0.0028315  0  0
Cu  -4.4912238  2.9559271  6.3469415  0.0008953  -0.0010463  0.002426  0  0
Cu  -6.3439713  2.737849  4.3539205  0.0003956  -0.0036015  0.0008622  0  0
Cu  -4.3638277  0.8899897  4.412611  -0.0006377  -0.0008252  0.0022379  0  0
Cu  -6.2793198  4.8994002  -4.5712004  0.0066961  0.0006451  0.0067179  0  0
Cu  -4.3382511  6.7339373  -4.3309917  -0.0058608  -0.0036134  -0.0015347  0  0
Cu  -6.0655622  6.8376412  -6.2025776  0.0038005  -0.0039922  0.0026542  0  0
Cu  -4.2669168  5.0327582  -6.3233585  0.0007754  0.0008459  -0.0008444  0  0
Cu  -6.2961931  4.8564057  -1.0310187  -0.0038107  0.0076971  -0.0015158  0  0
Cu  -4.3993411  6.6339393  -0.9880678  0.0046175  0.0005083  -0.002744  0  0
Cu  -6.3747511  6.665369  -2.7405083  -0.0003291  0.0027364  0.0008932  0  0
Cu  -4.4042902  4.745472  -2.7521122  0.00016  -0.0003439  -0.0021644  0  0
Cu  -6.5695887  4.6972914  2.6005366  -0.0027445  -0.0000466  0.0026593  0  0
Cu  -4.4362149  6.4513412  2.5254734  0.0007026  -0.0039115  0.0037299  0  0
Cu  -6.1986494  6.5714602  0.8530177  0.0006363  0.0013681  -0.0018662  0  0
Cu  -4.4605107  4.5406628  0.8230633  0.0012021  0.0014254  -0.0030913  0  0
Cu  -6.5109897  4.5100102  6.1317587  -0.0002702  -0.0024226  -0.0005585  0  0
Cu  -4.6008472  6.1450176  6.5079308  0.0017359  0.0052451  -0.0012388  0  0
Cu  -6.2423983  6.4655747  4.3658442  -0.0031039  0.0036101  -0.0020116  0  0
Cu  -4.5793343  4.5339518  4.4022975  -0.0017858  0.0011116  -0.0010157  0  0
Cu  -2.5894423  -6.2998071  -4.7530723  -0.0012689  -0.0038713  -0.0038732  0  0
Cu  -0.6735076  -4.3298039  -4.6457367  -0.0003705  0.0009316  -0.0003026  0  0
Cu  -2.3894408  -4.3514237  -6.4982905  0.0013545  0.0033118  -0.0010938  0  0
Cu  -0.6638688  -6.2126498  -6.4362512  -0.0003083  0.0036483  -0.0007345  0  0
Cu  -2.6604898  -6.1977458  -1.1528527  0.0010585  0.0037385  0.001878  0  0
Cu  -0.7923269  -4.4204154  -1.0703394  0.001439  -0.0019031  0.0027511  0  0
Cu  -2.6158645  -4.3411841  -2.9033105  -0.0012409  -0.0003939  -0.0010395  0  0
Cu  -0.8261066  -6.1700702  -2.8693724  -0.0024035  0.0008324  0.0030097  0  0
Cu  -2.7956123  -6.3457522  2.5213416  -0.0006368  0.0005012  -0.000674  0  0
Cu  -0.929705  -4.6051207  2.6412256  -0.0009683  -0.0069162  -0.0050888  0  0
Cu  -2.6508913  -4.4659467  0.7439308  -0.0035105  -0.0026345  -0.0003576  0  0
Cu  -0.9122829  -6.4320707  0.7851186  -0.0016401  0.0056443  0.0019813  0  0
Cu  -2.5522943  -6.4082003  6.272831  0.0033931  -0.0010261  -0.0065809  0  0
Cu  -0.7709507  -4.6722713  6.070415  0.0011711  0.0019096  -0.0033536  0  0
Cu  -2.7156343  -4.5843987  4.4441957  0.0034958  -0.0050975  0.0008148  0  0
Cu  -0.9545745  -6.549572  4.2818418  -0.0009322  0.0001184  0.0022452  0  0
Cu  -2.597755  -2.5646462  -4.7229838  -0.0027421  -0.0011012  -0.0018647  0  0
Cu  -0.7787642  -0.7412927  -4.6048951  -0.0016274  -0.0011219  0.0018629  0  0
Cu  -2.3904092  -0.6704315  -6.6031203  0.0016391  -0.0015556  0.0012182  0  0
Cu  -0.6647984  -2.5754001  -6.3963227  0.0017587  0.0034574  -0.0001541  0  0
Cu  -2.6944833  -2.4924867  -1.0837284  0.002243  -0.001654  0.0040022  0  0
Cu  -0.8320767  -0.7731719  -0.9255162  -0.0014443  0.0035869  -0.0018265  0  0
Cu  -2.6987336  -0.6955248  -2.8310986  -0.0031898  0.0004705  0.0019032  0  0
Cu  -0.8011469  -2.4671376  -2.8240354  -0.0024759  0.0004204  0.0041663  0  0
Cu  -2.7425828  -2.7340353  2.6053565  -0.0031406  -0.0003828  -0.0019884  0  0
Cu  -0.9249591  -0.7943587  2.7190821  -0.0004977  -0.002384  -0.0016471  0  0
Cu  -2.6677256  -0.7828001  0.9169347  -0.003859  0.0053495  0.0013853  0  0
Cu  -0.9790995  -2.6782706  0.8883151  0.003953  0.0042286  0.0035514  0  0
Cu  -2.6194899  -2.8741696  6.2669783  -0.0017895  -0.0014678  -0.0017532  0  0
Cu  -0.8740637  -1.0618074  6.4190741  0.0004228  -0.0037406  -0.0005429  0  0
Cu  -2.6941257  -0.9246249  4.521338  0.0014559  0.0037293  0.0034428  0  0
Cu  -0.9409272  -2.7243216  4.3748183  -0.000895  -0.0004974  0.002665  0  0
Cu  -2.6263359  1.2533716  -4.6231008  0.005412  0.0028536  0.0022671  0  0
Cu  -0.7477897  2.8575616  -4.4543037  0.0066073  -0.0000878  0.0027232  0  0
Cu  -2.4501081  3.0629072  -6.4673729  0.0041784  -0.0029712  0.0006095  0  0
Cu  -0.777665  1.2660067  -6.408699  -0.0024606  -0.0014306  -0.0003536  0  0
Cu  -2.5897129  1.0796939  -0.9479055  0.002472  -0.0042101  -0.000382  0  0
Cu  -0.7932131  2.7496521  -0.877867  0.0042081  -0.0004039  -0.0006587  0  0
Cu  -2.6537747  2.9304771  -2.6843536  0.0030645  0.003862  0.0037371  0  0
Cu  -0.87739  0.9557835  -2.7640643  0.0000088  0.0022238  0.0034411  0  0
Cu  -2.6542344  0.9599097  2.6302297  0.0026028  0.0006235  0.0006932  0  0
Cu  -0.7432833  2.7068949  2.7511866  0.0003958  0.0004856  -0.0015358  0  0
Cu  -2.6480932  2.7750361  0.8532298  0.0015104  0.0020675  0.0008646  0  0
Cu  -0.7588242  0.9639544  0.9147668  0.0001663  0.0021425  0.0005938  0  0
Cu  -2.7567902  0.8625553  6.4244037  -0.0044811  -0.0011527  -0.0001055  0  0
Cu  -0.9351029  2.6244588  6.333643  -0.0036368  -0.0052338  0.0008245  0  0
Cu  -2.6033034  2.7858748  4.3057532  -0.0041252  -0.006209  0.0062273  0  0
Cu  -0.916705  0.8525952  4.5066886  -0.0008019  -0.000569  -0.0013163  0  0
Cu  -2.5897005  4.7714949  -4.5106912  0.000397  -0.0015638  0.0066858  0  0
Cu  -0.6396675  6.5808506  -4.4708757  -0.0023072  -0.0030268  -0.0022111  0  0
Cu  -2.5253124  6.9121251  -6.0988312  0.0020161  -0.0025304  0.001878  0  0
Cu  -0.6947802  4.7626557  -6.2279468  -0.0020238  0.0004141  0.0030231  0  0
Cu  -2.6667039  4.5921817  -0.8670389  0.003715  -0.0000341  -0.002623  0  0
Cu  -0.6473478  6.5048742  -0.8376374  0.0009308  -0.0031414  -0.000683  0  0
Cu  -2.380868  6.540844  -2.6179898  -0.0060158  -0.000487  0.0001032  0  0
Cu  -0.7657237  4.5972271  -2.7139301  0.0040988  0.0007563  0.0008609  0  0
Cu  -2.5975056  4.6541142  2.5638416  -0.0008827  0.0005463  -0.0044103  0  0
Cu  -0.8375962  6.4827371  2.6019726  0.004113  0.0005936  0.0011421  0  0
Cu  -2.6165898  6.4972534  0.7842699  0.0030045  0.0017647  -0.0019004  0  0
Cu  -0.7736627  4.5228758  0.9295444  -0.0000024  0.0053871  0.0025621  0  0
Cu  -2.5820701  4.5877848  6.1529865  0.0036903  -0.0022379  -0.0013602  0  0
Cu  -1.0379444  6.4650507  6.2189403  -0.0052339  0.0001453  -0.0042403  0  0
Cu  -2.8060851  6.4088235  4.3570437  0.0000661  0.0022108  0.0031444  0  0
Cu  -0.8829829  4.6211419  4.3516192  -0.0003472  0.000893  0.0001025  0  0
Cu  1.0631074  -6.2457108  -4.5674043  -0.0038962  -0.0043383  0.0022121  0  0
Cu  2.7852418  -4.4016128  -4.6054482  -0.002119  0.0010368  -0.0005236  0  0
Cu  1.0199132  -4.3373151  -6.6144242  -0.0032481  0.0059401  -0.000373  0  0
Cu  2.8945866  -6.2664723  -6.4140487  0.0007873  -0.001759  -0.0015485  0  0
Cu  0.8190074  -6.3819375  -1.0415486  0.0022975  0.0009204  0.0028708  0  0
Cu  2.6974382  -4.4116712  -0.8523965  0.0008246  -0.004895  0.0021101  0  0
Cu  1.0035821  -4.3952727  -2.8353062  -0.0007846  0.0006154  0.001397  0  0
Cu  2.82037  -6.1682568  -2.6996398  0.0003409  0.0020634  -0.0014291  0  0
Cu  0.8353751  -6.5119581  2.6276705  0.0011374  -0.0008261  0.0013165  0  0
Cu  2.6979566  -4.6301751  2.5741456  -0.0005583  0.0006592  -0.0001989  0  0
Cu  0.8100725  -4.4789972  0.8425298  0.0030685  -0.0028884  -0.0020054  0  0
Cu  2.7512841  -6.3202949  0.6678548  0.000339  -0.0005451  -0.0066148  0  0
Cu  0.8682901  -6.6860695  5.9815807  -0.0013012  0.0036355  -0.0042096  0  0
Cu  2.6720891  -4.7926083  6.2497783  0.0037495  -0.0008319  -0.0058648  0  0
Cu  1.0152224  -4.5498471  4.3385839  -0.0004022  -0.0020111  -0.0048111  0  0
Cu  2.7802751  -6.522727  4.2629805  -0.0019075  -0.0013404  0.0022892  0  0
Cu  1.0777193  -2.5482006  -4.6052103  -0.0039833  0.007399  -0.0016023  0  0
Cu  2.8909059  -0.7406662  -4.5500712  0.0009453  0.0007247  -0.0001027  0  0
Cu  0.9643531  -0.701108  -6.4120235  0.0015828  -0.0000362  -0.0011549  0  0
Cu  2.8291645  -2.5414062  -6.3702002  0.0015022  0.0009017  0.0021957  0  0
Cu  0.9191272  -2.531424  -0.8637552  0.0023037  0.0014644  -0.0040868  0  0
Cu  2.8312316  -0.7724369  -0.8059986  0.0017183  -0.0025467  0.003091  0  0
Cu  1.0486887  -0.7996761  -2.7890701  -0.0020083  0.0024388  -0.0020906  0  0
Cu  2.7754571  -2.6226273  -2.6996803  -0.0022564  0.0008474  -0.0016302  0  0
Cu  0.9043562  -2.7107275  2.6595731  0.0009821  0.0034722  -0.0009484  0  0
Cu  2.8505797  -0.8205722  2.775593  0.0023701  0.0000694  0.0016628  0  0
Cu  1.0055039  -0.8938957  1.0337908  -0.0011698  0.0028815  0.0010268  0  0
Cu  2.7775016  -2.7214851  0.9705728  -0.0015242  0.0032878  -0.0024313  0  0
Cu  0.9782188  -2.8633897  6.3055243  -0.0002722  -0.0001916  0.0005514  0  0
Cu  2.5795317  -1.0401244  6.4973602  0.0034731  0.0012799  0.0010932  0  0
Cu  0.8541186  -1.0219815  4.5997438  0.0005709  0.0021758  -0.0030777  0  0
Cu  2.7332935  -2.8129227  4.3989739  0.0034905  0.0017287  -0.0010998  0  0
Cu  0.948257  1.0065762  -4.5394511  -0.0002933  0.0008932  0.0033899  0  0
Cu  2.9856439  2.7330377  -4.476315  -0.0012272  -0.0028285  0.0026935  0  0
Cu  1.1163794  2.892766  -6.2912593  0.0012061  -0.0004887  -0.0018946  0  0
Cu  2.9246571  0.9968915  -6.3721752  0.0004879  -0.0020488  0.0053101  0  0
Cu  0.9738492  0.9383662  -0.9431295  0.0036084  -0.0025638  0.0035948  0  0
Cu  2.8601046  2.7003579  -0.8881768  0.0001675  -0.0042181  0.0009924  0  0
Cu  1.0039765  2.8482897  -2.6188736  -0.0007591  0.0019508  0.001723  0  0
Cu  2.8184094  0.9996451  -2.7050021  0.003807  0.00042  0.0000965  0  0
Cu  0.9606981  0.9316608  2.7686017  0.0018999  0.0022513  -0.0029069  0  0
Cu  2.8363702  2.5881236  2.8420551  0.003987  -0.0004354  0.0040045  0  0
Cu  1.1055355  2.7394671  0.9274707  0.0004367  0.0019466  -0.0002069  0  0
Cu  2.7987745  0.9166031  0.9944071  -0.0021824  -0.0025357  -0.0022026  0  0
Cu  0.780081  0.8321658  6.5530128  0.0024004  -0.0014524  0.0015589  0  0
Cu  2.6795444  2.5886803  6.5270705  0.0039449  0.0014643  0.0001162  0  0
Cu  0.9610428  2.6523676  4.6621413  -0.00334  0.0014617  -0.0002756  0  0
Cu  2.6064022  0.7593532  4.7063603  0.0015845  0.0005285  -0.0003362  0  0
Cu  1.1205363  4.6715531  -4.4782639  0.0015562  -0.0003481  -0.0001639  0  0
Cu  3.0354371  6.457715  -4.4695787  -0.0033279  0.0007797  0.0012939  0  0
Cu  1.1534933  6.4912038  -6.3983502  -0.0012946  -0.0003829  0.0005633  0  0
Cu  2.9411345  4.6467161  -6.3310847  -0.0036986  -0.000261  0.0001301  0  0
Cu  0.9540488  4.5644817  -0.869801  -0.0026067  -0.0018754  0.00234  0  0
Cu  2.9172821  6.3268232  -0.8122891  0.0030335  -0.0012128  -0.002429  0  0
Cu  1.0732684  6.3712382  -2.5798316  -0.000386  -0.0036462  -0.0009462  0  0
Cu  2.9365263  4.6150622  -2.6182089  -0.0034947  0.0038987  -0.0044516  0  0
Cu  1.0390263  4.5908937  2.7384453  0.0018485  0.0003612  0.0015658  0  0
Cu  2.8774519  6.3750052  2.8612509  -0.000372  0.0010226  -0.0032442  0  0
Cu  1.0919114  6.3311152  0.886229  0.0008801  -0.0060618  0.0027068  0  0
Cu  2.9105341  4.5229278  0.963053  -0.0003643  0.0003594  0.0009314  0  0
Cu  0.7918276  4.6616488  6.4561782  -0.0006433  -0.0052623  0.0001352  0  0
Cu  2.7481084  6.2933803  6.5765142  0.0010419  -0.0015064  0.0004976  0  0
Cu  0.9264672  6.453495  4.5235972  -0.002198  0.0018246  0.0001139  0  0
Cu  2.6545246  4.5403328  4.6619678  -0.0020341  -0.0010819  -0.0020598  0  0
Cu  4.6563997  -6.1988649  -4.4098582  -0.0062292  -0.0020841  -0.0038058  0  0
Cu  6.4933009  -4.1995153  -4.5205507  -0.0017645  -0.0018832  0.0063917  0  0
Cu  4.6629257  -4.3011837  -6.4189105  -0.0027828  0.0030754  0.0027674  0  0
Cu  6.4096518  -6.3410025  -6.1589174  -0.0002785  -0.0000876  0.0040757  0  0
Cu  4.6905727  -6.2695098  -0.9927405  0.0003427  0.0016564  -0.0006996  0  0
Cu  6.5044346  -4.4409161  -0.898855  -0.0025651  0.0008166  -0.0018175  0  0
Cu  4.6800485  -4.3492308  -2.6490562  -0.0001952  -0.0002589  -0.0000074  0  0
Cu  6.4973602  -6.3127937  -2.6899374  -0.0002225  0.0014297  0.0038271  0  0
Cu  4.6943297  -6.5438643  2.5591946  -0.0039932  0.0029395  -0.001857  0  0
Cu  6.5096498  -4.5561547  2.6537631  -0.0038056  -0.000185  -0.0012777  0  0
Cu  4.6450205  -4.5352435  0.8907467  0.0013988  0.0043919  0.0025741  0  0
Cu  6.5919676  -6.4866138  0.8223861  -0.0019908  0.0031863  0.000045  0  0
Cu  4.3725996  -6.7529283  6.2005582  0.000877  -0.0006964  -0.0041451  0  0
Cu  6.1505632  -4.7992463  6.3422585  0.0014017  0.0064748  0.0028801  0  0
Cu  4.4961147  -4.6986718  4.3755183  0.0008621  -0.0018508  -0.0010824  0  0
Cu  6.3781347  -6.3762612  4.4605112  0.0027435  0.0072973  0.0001049  0  0
Cu  4.5682383  -2.6003609  -4.5135255  0.0028669  -0.0015466  0.0005476  0  0
Cu  6.4323254  -0.9076596  -4.5128617  0.0018714  0.000546  0.0021042  0  0
Cu  4.7322493  -0.8258547  -6.3067822  -0.0017808  0.0019067  -0.0035308  0  0
Cu  6.5883675  -2.5379541  -6.5482168  0.0024949  0.003975  0.0016044  0  0
Cu  4.6436205  -2.5036151  -0.7878852  -0.0029387  0.003082  0.0000848  0  0
Cu  6.5845842  -0.8448325  -0.8343744  -0.0017831  0.00107  0.0020247  0  0
Cu  4.6709538  -0.8234258  -2.6281736  -0.0004349  -0.0033189  0.0004648  0  0
Cu  6.5123019  -2.5795741  -2.6212039  -0.0006422  0.000469  -0.0011235  0  0
Cu  4.5950422  -2.7308688  2.6924956  -0.0030504  0.0028283  0.0022744  0  0
Cu  6.492825  -0.9579375  2.9870102  0.002483  0.0025949  -0.0016571  0  0
Cu  4.6805825  -0.8004328  1.050938  -0.0038933  -0.0006064  0.0006645  0  0
Cu  6.5661054  -2.5955741  1.0372822  -0.001124  0.0003536  0.0023892  0  0
Cu  4.3055067  -2.9025571  6.4027519  0.0049098  0.0013301  -0.0003265  0  0
Cu  6.0427279  -1.131526  6.8993587  -0.0013338  -0.0032391  0.0024932  0  0
Cu  4.5227184  -1.0688993  4.7370443  -0.0011555  0.0013542  0.003659  0  0
Cu  6.1975141  -2.8335865  4.7652283  -0.0022993  -0.0031144  -0.0034499  0  0
Cu  4.7614198  0.9946608  -4.4753432  0.0038827  -0.0033519  -0.0004259  0  0
Cu  6.6775622  2.7674627  -4.3721857  -0.0007372  -0.0054456  -0.0002375  0  0
Cu  4.7837873  2.7859051  -6.2603393  0.001856  0.0024729  -0.00281  0  0
Cu  6.4972472  0.9249052  -6.341701  -0.0010169  -0.0016868  -0.001525  0  0
Cu  4.7132888  0.965992  -0.8644665  0.0009533  -0.0036845  -0.0032123  0  0
Cu  6.8532395  2.6070266  -0.8350163  -0.0027122  -0.0015621  -0.0049355  0  0
Cu  4.8101559  2.7009251  -2.6591206  0.0001575  -0.0018328  -0.0017307  0  0
Cu  6.6154017  0.8814505  -2.7037079  -0.0016441  0.0031535  0.0036193  0  0
Cu  4.5880318  0.9408732  2.9513004  0.0046911  -0.0029292  -0.001289  0  0
Cu  6.4262881  2.6301699  2.9122736  -0.0005791  -0.0005216  0.0008057  0  0
Cu  4.6647482  2.7310691  0.9790056  -0.0001881  -0.000825  0.0012641  0  0
Cu  6.6370997  0.831273  1.1296989  -0.0014271  0.0019094  0.0026077  0  0
Cu  4.4397035  0.8315498  6.5244927  -0.0044275  0.0012678  0.0012833  0  0
Cu  6.5481095  2.5805602  6.6088996  -0.0007449  0.0014678  -0.0009631  0  0
Cu  4.4800344  2.6396461  4.7435203  -0.0008832  -0.0006043  0.0031012  0  0
Cu  6.4314427  0.837988  4.8407655  -0.0001394  0.0003368  -0.0003911  0  0
Cu  4.7541022  4.6088099  -4.3932843  0.0008287  0.0021098  -0.0056502  0  0
Cu  6.5998592  6.3738217  -4.308363  -0.0027402  -0.0003307  0.0019595  0  0
Cu  4.8773036  6.277761  -6.2436776  0.0022306  -0.0022936  -0.0008986  0  0
Cu  6.6418333  4.4766002  -6.3211651  -0.0000575  -0.0009598  0.0067369  0  0
Cu  4.7235999  4.4413395  -0.8515711  0.00266  0.0020668  -0.0026415  0  0
Cu  6.4989228  6.5034118  -0.7004092  0.0027842  0.0031349  0.0055019  0  0
Cu  4.5931034  6.4497933  -2.5643606  -0.0024885  0.0011245  -0.001399  0  0
Cu  6.4654031  4.6631103  -2.5734801  -0.0001714  0.0011886  -0.0004213  0  0
Cu  4.670454  4.4583187  2.9027228  0.0002526  0.004194  -0.0020972  0  0
Cu  6.4780707  6.1555037  3.0056596  -0.0013513  -0.0034066  -0.0010588  0  0
Cu  4.6900349  6.2874823  1.0051068  0.0032635  -0.0031577  -0.0003189  0  0
Cu  6.5228934  4.4721627  0.9626033  0.0003259  -0.0003013  -0.0049893  0  0
Cu  4.5211887  4.3052001  6.7067823  -0.0041248  -0.0015497  -0.0010799  0  0
Cu  6.3096004  6.1550307  6.6838393  0.0043956  -0.0048293  -0.0013186  0  0
Cu  4.5860243  6.1181846  4.8140945  -0.0031344  -0.0003771  0.002358  0  0
Cu  6.4219623  4.3840837  4.8445387  -0.0000907  0.0006223  -0.0001681  0  0
