216
#forces [0 0 0] --- created by Molecular Workbench, http://mw.concord.org
Na  -6.04686  -5.96293  -5.86095  0.00113  0.0007  0.00112  1
Na  -3.19588  -3.12939  -5.95099  0.00099  0.00059  0.00176  1
Na  -6.14031  -3.13589  -3.02686  0.00185  0.00078  0.00068  1
Na  -3.21757  -6.07622  -3.00557  0.00078  0.00199  0.00105  1
Cl  -3.22642  -3.17008  -3.0453  0.00107  0.00143  0.00103  -1
Cl  -6.11994  -6.01982  -3.01649  0.00187  0.00121  0.0008  -1
Cl  -3.20692  -6.03372  -5.89158  0.00056  0.00179  0.00143  -1
Cl  -6.08229  -3.1144  -5.92315  0.00151  0.00047  0.00187  -1
Na  -6.13673  -6.07859  -0.16381  0.00091  0.0015  -0.00053  1
Na  -3.21561  -3.19839  -0.15068  0.00122  0.00135  0.00043  1
Na  -6.16266  -3.16439  2.72284  0.00105  0.00144  -0.00022  1
Na  -3.26128  -6.08646  2.73781  0.00155  0.00148  -0.00029  1
Cl  -3.25362  -3.19147  2.74849  0.00035  0.00072  -0.00009  -1
Cl  -6.17203  -6.07003  2.70399  0.00109  0.00129  -0.00053  -1
Cl  -3.23339  -6.16647  -0.14213  0.00097  0.00159  0.00069  -1
Cl  -6.14897  -3.18189  -0.16072  0.00175  0.00061  0.00015  -1
Na  -6.14523  -6.07772  5.5676  0.00057  0.00113  -0.00092  1
Na  -3.28694  -3.21308  5.65385  0.00131  0.00112  -0.00075  1
Na  -6.168  -3.18259  8.49365  0.00082  0.00102  -0.0006  1
Na  -3.23765  -6.07014  8.4894  0.00128  0.00119  -0.00123  1
Cl  -3.2763  -3.17937  8.58421  0.00091  0.00126  -0.00036  -1
Cl  -6.08685  -6.02421  8.42018  0.0013  0.00177  -0.00107  -1
Cl  -3.25209  -6.13245  5.60324  0.00133  0.00042  -0.00106  -1
Cl  -6.18923  -3.19069  5.59927  0.00081  0.00087  -0.00106  -1
Na  -6.14262  -0.25157  -5.92743  0.00126  -0.00033  0.00079  1
Na  -3.23373  2.62066  -5.94746  0.00121  -0.00041  0.00137  1
Na  -6.1734  2.61014  -3.03469  0.00103  -0.00059  0.00174  1
Na  -3.26782  -0.27646  -3.01417  0.00084  0.00073  0.00095  1
Cl  -3.26519  2.61216  -3.03107  0.00034  -0.00001  0.00059  -1
Cl  -6.24134  -0.27358  -3.02495  0.00137  0.00059  0.00087  -1
Cl  -3.24494  -0.26064  -5.94851  0.00089  -0.00001  0.00175  -1
Cl  -6.11576  2.61839  -5.9471  0.00129  -0.00098  0.0014  -1
Na  -6.17701  -0.27996  -0.14253  0.00137  0.00035  0.00006  1
Na  -3.25635  2.61144  -0.14795  0.00172  -0.00095  0.00143  1
Na  -6.18922  2.58003  2.74932  0.00127  -0.0002  -0.00057  1
Na  -3.28687  -0.29999  2.76221  0.00081  0.00086  -0.00068  1
Cl  -3.27652  2.59109  2.73965  0.00068  -0.00038  0.00005  -1
Cl  -6.20331  -0.29314  2.75324  0.00169  0.00099  -0.00114  -1
Cl  -3.27753  -0.29056  -0.10656  0.00139  -0.00023  0.00003  -1
Cl  -6.1633  2.60517  -0.14058  0.00158  -0.00076  0.00056  -1
Na  -6.18082  -0.31597  5.64138  0.00138  0.00045  -0.00151  1
Na  -3.27319  2.59467  5.6386  0.00108  -0.00075  -0.00077  1
Na  -6.15022  2.56483  8.54409  0.00065  0.00035  -0.00109  1
Na  -3.25941  -0.30466  8.57295  0.00135  0.00029  -0.00151  1
Cl  -3.25721  2.58676  8.60307  0.00059  -0.00058  -0.00118  -1
Cl  -6.17908  -0.31146  8.53066  0.00113  0.00091  -0.00116  -1
Cl  -3.27924  -0.29997  5.65237  0.00043  -0.00016  -0.00059  -1
Cl  -6.2135  2.56191  5.63854  0.00174  -0.00023  -0.00084  -1
Na  -6.12875  5.48585  -5.90526  0.00112  -0.00107  0.00101  1
Na  -3.22557  8.40341  -5.90292  0.00112  -0.00071  0.00041  1
Na  -6.13769  8.38622  -2.97666  0.00101  -0.00093  0.00107  1
Na  -3.29358  5.52213  -3.04316  0.00063  -0.00061  0.00142  1
Cl  -3.25048  8.43327  -3.00031  0.00092  -0.00056  0.00109  -1
Cl  -6.22847  5.48852  -3.01722  0.00027  -0.00135  0.00123  -1
Cl  -3.23639  5.50971  -5.94557  0.00091  -0.00091  0.0009  -1
Cl  -6.0751  8.34177  -5.82787  0.0013  -0.00141  0.00125  -1
Na  -6.21622  5.47794  -0.12544  0.00121  -0.00129  0.0004  1
Na  -3.2785  8.41532  -0.10692  0.0017  -0.00094  0.0004  1
Na  -6.17019  8.36879  2.78066  0.00103  -0.00081  -0.00027  1
Na  -3.29765  5.50537  2.75225  0.00059  -0.0008  -0.00072  1
Cl  -3.26762  8.45772  2.78247  0.00055  -0.00188  -0.00029  -1
Cl  -6.27053  5.47098  2.77508  0.00126  -0.00089  -0.00055  -1
Cl  -3.29711  5.50134  -0.12894  0.00074  -0.00023  0.00005  -1
Cl  -6.16031  8.37573  -0.08891  0.00129  -0.00149  0.00046  -1
Na  -6.18993  5.43554  5.63764  0.00196  -0.00085  -0.00089  1
Na  -3.25106  8.38719  5.63927  0.001  -0.00166  -0.00031  1
Na  -6.08992  8.2635  8.48937  0.0006  -0.00116  -0.00096  1
Na  -3.24424  5.45385  8.55041  0.00025  -0.00061  -0.00188  1
Cl  -3.24185  8.34345  8.53083  0.00035  -0.00152  -0.00161  -1
Cl  -6.13838  5.42092  8.53789  0.00133  -0.00017  -0.00136  -1
Cl  -3.28878  5.48443  5.63762  0.00127  -0.00132  -0.00132  -1
Cl  -6.15387  8.33517  5.65585  0.00127  -0.00176  -0.00066  -1
Na  -0.3327  -6.03376  -5.91204  0.00007  0.00063  0.00121  1
Na  2.55554  -3.16244  -5.95176  -0.0006  0.00146  0.00145  1
Na  -0.34129  -3.14664  -3.05818  0.00086  0.00083  0.00089  1
Na  2.53533  -6.0815  -3.00333  -0.00052  0.00139  0.00153  1
Cl  2.54565  -3.15511  -3.03609  0.00014  0.00048  0.00073  -1
Cl  -0.34918  -6.09475  -3.02564  0.00008  0.00189  0.00064  -1
Cl  2.54  -6.05767  -5.88984  -0.00086  0.00132  0.00157  -1
Cl  -0.32731  -3.13428  -6.03146  0.00055  0.0007  0.00157  -1
Na  -0.3499  -6.08467  -0.12535  0.0007  0.0013  -0.0001  1
Na  2.54391  -3.17166  -0.14576  -0.00109  0.00099  0.00098  1
Na  -0.36817  -3.15539  2.77611  0.00099  0.00122  -0.00112  1
Na  2.52691  -6.0842  2.74504  -0.00077  0.00141  0.00027  1
Cl  2.50108  -3.18347  2.77004  -0.00002  0.00106  -0.00024  -1
Cl  -0.37721  -6.07389  2.74895  0.00074  0.00159  -0.00076  -1
Cl  2.54606  -6.08064  -0.13058  -0.00096  0.00156  0.0009  -1
Cl  -0.31852  -3.17355  -0.13906  0.00014  0.00101  -0.00015  -1
Na  -0.3484  -6.09503  5.61988  0.00043  0.00096  -0.0018  1
Na  2.50406  -3.16759  5.68853  -0.00099  0.00018  -0.00081  1
Na  -0.37971  -3.17554  8.58377  0.00014  0.00169  -0.00132  1
Na  2.51599  -6.04665  8.54399  0.00003  0.00071  -0.0013  1
Cl  2.51258  -3.15212  8.65356  -0.00056  0.00093  -0.00156  -1
Cl  -0.35169  -6.06243  8.5081  0.0005  0.0014  -0.00161  -1
Cl  2.5373  -6.1229  5.64172  -0.00035  0.00143  -0.00062  -1
Cl  -0.37541  -3.17679  5.66961  -0.00015  0.00022  -0.00063  -1
Na  -0.345  -0.25103  -5.93201  0.00026  0.00021  0.00138  1
Na  2.51268  2.63001  -5.9403  0.00004  -0.00041  0.00121  1
Na  -0.37054  2.63744  -3.03646  0.0005  -0.00106  0.00089  1
Na  2.5425  -0.27159  -3.01412  -0.00137  0.00114  0.00166  1
Cl  2.51815  2.60609  -3.03538  -0.00017  0.00011  0.0014  -1
Cl  -0.3661  -0.23537  -3.02465  -0.00007  0.00028  0.00082  -1
Cl  2.53393  -0.26461  -5.9166  -0.00061  0.00082  0.00168  -1
Cl  -0.36512  2.63791  -5.95828  0.00105  -0.001  0.00179  -1
Na  -0.37251  -0.27128  -0.12668  0.0003  -0.00004  -0.00009  1
Na  2.51847  2.62574  -0.12306  -0.00021  -0  -0.00003  1
Na  -0.36892  2.61979  2.76687  -0.00025  -0.00032  -0.00012  1
Na  2.5265  -0.27077  2.76323  0.00008  0.00017  -0.00002  1
Cl  2.52786  2.62133  2.77553  -0.00084  -0.00058  -0.00042  -1
Cl  -0.37872  -0.27064  2.76695  0.00029  0.00069  -0.00068  -1
Cl  2.52426  -0.27326  -0.12694  -0.00039  0.00055  0.00066  -1
Cl  -0.37171  2.62692  -0.12746  0.00055  -0.00073  0.00036  -1
Na  -0.39213  -0.28619  5.66154  0.0014  0.00087  -0.00166  1
Na  2.52393  2.62277  5.68055  -0.00075  -0.00066  -0.00094  1
Na  -0.36563  2.60275  8.58367  0.00025  -0.00032  -0.00126  1
Na  2.5009  -0.26252  8.57517  -0.00045  -0.00018  -0.00135  1
Cl  2.51231  2.62401  8.59965  -0.00118  -0.00091  -0.0017  -1
Cl  -0.37525  -0.28655  8.56291  0.00076  0.001  -0.00168  -1
Cl  2.5161  -0.25541  5.66905  -0.00003  0.00033  -0.00072  -1
Cl  -0.36457  2.59155  5.67777  0.00024  0.00018  -0.00135  -1
Na  -0.37746  5.53112  -5.90596  0.00048  -0.00143  0.0012  1
Na  2.50496  8.42518  -5.88916  0.00078  -0.00129  0.00057  1
Na  -0.38412  8.4389  -2.9949  0.00013  -0.00167  0.0011  1
Na  2.52249  5.51351  -2.99591  -0.00052  -0.00115  0.001  1
Cl  2.49977  8.46904  -2.99848  -0.0006  -0.0015  0.00073  -1
Cl  -0.38375  5.52749  -3.01371  -0.00011  -0.00082  0.00039  -1
Cl  2.49831  5.51564  -5.9342  -0.00036  -0.00079  0.00139  -1
Cl  -0.36694  8.43966  -5.9042  0.00062  -0.00097  0.00085  -1
Na  -0.4006  5.52894  -0.12667  0.001  -0.00125  0.00106  1
Na  2.49589  8.4414  -0.10493  -0.00011  -0.00129  0.00047  1
Na  -0.37255  8.42319  2.76811  -0.00015  -0.00156  -0.00029  1
Na  2.5284  5.51614  2.78162  -0.00112  -0.00117  -0.00083  1
Cl  2.51214  8.4323  2.77964  -0.00085  -0.00162  -0.00087  -1
Cl  -0.37292  5.53095  2.75789  0.00007  -0.00117  -0.00013  -1
Cl  2.49467  5.53403  -0.09886  0.00005  -0.00103  -0.00007  -1
Cl  -0.38729  8.43248  -0.12143  0.00102  -0.00159  0.00087  -1
Na  -0.39073  5.50228  5.65107  0.00043  -0.00094  -0.00124  1
Na  2.49892  8.43236  5.65257  -0.00048  -0.00085  -0.00129  1
Na  -0.38899  8.39772  8.56944  -0.00074  -0.00147  -0.00078  1
Na  2.50163  5.51042  8.56717  -0.00052  -0.0015  -0.00111  1
Cl  2.48008  8.41654  8.56379  -0.00055  -0.00114  -0.00098  -1
Cl  -0.38247  5.49455  8.60086  0.00029  -0.001  -0.00131  -1
Cl  2.50739  5.52153  5.66964  -0.00015  -0.00045  -0.00042  -1
Cl  -0.38273  8.4556  5.66401  0.00051  -0.00151  -0.00061  -1
Na  5.41685  -6.03654  -5.86721  -0.00105  0.0006  0.00098  1
Na  8.32286  -3.1241  -5.86761  -0.00106  0.00124  0.00101  1
Na  5.46069  -3.16532  -3.035  -0.00122  0.00101  0.00087  1
Na  8.32451  -6.02745  -2.94674  -0.00062  0.0006  0.00094  1
Cl  8.36269  -3.13804  -2.96993  -0.00069  0.00086  0.00112  -1
Cl  5.42694  -6.07522  -2.98593  -0.0013  0.00046  0.00079  -1
Cl  8.26444  -5.97319  -5.80011  -0.00149  0.00134  0.00111  -1
Cl  5.43624  -3.14183  -5.96869  -0.00118  0.00125  0.00046  -1
Na  5.43322  -6.05282  -0.12394  -0.00159  0.00096  0.00054  1
Na  8.33583  -3.12609  -0.10029  -0.00144  0.00098  0.0001  1
Na  5.39199  -3.16144  2.78206  -0.00104  0.00113  -0.00045  1
Na  8.32382  -6.02773  2.78133  -0.00101  0.00131  0.00049  1
Cl  8.33404  -3.13235  2.78223  -0.00137  0.00072  -0.00032  -1
Cl  5.41931  -6.11136  2.75656  -0.00095  0.00162  -0.00065  -1
Cl  8.34837  -6.03794  -0.08645  -0.00092  0.00094  0.00048  -1
Cl  5.42845  -3.15417  -0.12233  -0.00069  0.00029  -0.00008  -1
Na  5.40398  -6.05141  5.62312  -0.00074  0.00168  -0.00084  1
Na  8.31051  -3.10312  5.65467  -0.0022  0.00048  -0.00061  1
Na  5.36606  -3.11491  8.57789  -0.00068  0.00047  -0.00175  1
Na  8.22813  -5.93138  8.48039  -0.00058  0.00106  -0.00116  1
Cl  8.25383  -3.09017  8.55242  -0.00144  0.0002  -0.0017  -1
Cl  5.39185  -6.02266  8.51859  -0.00048  0.00164  -0.00162  -1
Cl  8.31406  -5.98738  5.63513  -0.00133  0.00138  -0.00064  -1
Cl  5.39914  -3.14816  5.67588  -0.00127  0.00104  -0.00102  -1
Na  5.40769  -0.25065  -5.94166  -0.00158  0.00025  0.00106  1
Na  8.30697  2.62499  -5.90175  -0.00115  0.0003  0.00079  1
Na  5.42604  2.63791  -3.01077  -0.00119  -0.0009  0.00029  1
Na  8.33408  -0.25459  -3.00573  -0.00115  0.00046  0.00169  1
Cl  8.36601  2.62577  -2.99313  -0.00176  -0.00046  0.00064  -1
Cl  5.43097  -0.25412  -3.02293  -0.00028  -0.00006  0.00066  -1
Cl  8.32208  -0.24865  -5.88593  -0.00151  0.00069  0.0011  -1
Cl  5.41191  2.64739  -5.97611  -0.0008  -0.00052  0.00102  -1
Na  5.43133  -0.25714  -0.1237  -0.00093  0.00096  0.00043  1
Na  8.32484  2.63048  -0.10657  -0.00129  -0.00029  0.00023  1
Na  5.41719  2.65041  2.79378  -0.00168  -0.00097  -0.00131  1
Na  8.34271  -0.24368  2.77482  -0.00125  0.00025  -0.00008  1
Cl  8.31747  2.64262  2.78324  -0.0016  -0.00088  -0.00056  -1
Cl  5.42963  -0.24287  2.74522  -0.00134  -0.00006  0.00013  -1
Cl  8.35362  -0.24952  -0.1172  -0.00167  0.00105  0.00123  -1
Cl  5.42611  2.64099  -0.1018  -0.00085  -0.00026  0.00022  -1
Na  5.42108  -0.25664  5.65715  -0.00097  0.00055  -0.00062  1
Na  8.32645  2.64677  5.67845  -0.00117  -0.00046  -0.00152  1
Na  5.39122  2.64519  8.59727  -0.00129  -0.00082  -0.00119  1
Na  8.29764  -0.22903  8.55759  -0.00101  -0.00054  -0.00084  1
Cl  8.28111  2.64375  8.59186  -0.00101  -0.00105  -0.00134  -1
Cl  5.39198  -0.23458  8.59371  -0.00059  0.00039  -0.00175  -1
Cl  8.38807  -0.23575  5.66248  -0.00137  0.00033  -0.00107  -1
Cl  5.41567  2.63952  5.68083  -0.00063  0.00018  -0.00057  -1
Na  5.37415  5.51088  -5.90359  -0.00075  -0.0005  0.00172  1
Na  8.20007  8.3346  -5.8253  -0.00122  -0.00049  0.00089  1
Na  5.36853  8.44248  -2.98262  -0.00093  -0.00206  0.00046  1
Na  8.31669  5.49195  -2.97464  -0.00161  -0.00057  0.00072  1
Cl  8.26162  8.39654  -2.99238  -0.00178  -0.00147  0.00059  -1
Cl  5.41367  5.53338  -2.99109  -0.00111  -0.0015  0.00105  -1
Cl  8.27006  5.48841  -5.87138  -0.00155  -0.00023  0.00151  -1
Cl  5.35563  8.40278  -5.87476  -0.00047  -0.00119  0.00127  -1
Na  5.42027  5.54972  -0.10222  -0.00069  -0.00093  0.00048  1
Na  8.289  8.42254  -0.117  -0.00099  -0.00056  -0.00022  1
Na  5.39914  8.44953  2.76925  -0.00169  -0.00134  -0.00049  1
Na  8.35177  5.52027  2.78258  -0.00098  -0.00139  -0.00041  1
Cl  8.29109  8.41777  2.75152  -0.00135  -0.00134  -0.00032  -1
Cl  5.42387  5.53896  2.78397  -0.00044  -0.00045  0.00009  -1
Cl  8.38089  5.52533  -0.11362  -0.00167  -0.00049  0.00056  -1
Cl  5.38238  8.50903  -0.11727  -0.00096  -0.00152  0.00033  -1
Na  5.42152  5.553  5.69782  -0.00065  -0.00066  -0.00136  1
Na  8.25809  8.42258  5.63494  -0.00047  -0.00091  -0.00092  1
Na  5.3417  8.40746  8.55847  -0.00104  -0.00072  -0.00051  1
Na  8.27439  5.51336  8.55034  -0.00058  -0.00079  -0.00059  1
Cl  8.19365  8.36443  8.48532  -0.00104  -0.00149  -0.00108  -1
Cl  5.37047  5.52222  8.60377  -0.00078  -0.00103  -0.00073  -1
Cl  8.3439  5.52378  5.67071  -0.00038  -0.00113  -0.00112  -1
Cl  5.37201  8.46769  5.65539  -0.00095  -0.00057  -0.00108  -1
