298
#forces [39 72 15] --- created by Molecular Workbench, http://mw.concord.org
Au  1.76997  -10.97478  -4.87751  0  0  0  0
Au  3.03103  -9.04078  -5.00684  0  0  0  0
Au  1.28765  -9.02994  -7.30381  0  0  0  0
Au  2.91558  -10.67817  -7.48253  0  0  0  0
Au  2.47658  -9.21365  0.0983  0  0  0  0
Au  3.19743  -9.02829  -0.92976  0  0  0  0
Au  1.29726  -8.89289  -3.01181  0  0  0  0
Au  2.94499  -11.19426  -2.85477  0  0  0  0
Au  1.2427  -11.16783  3.06379  0  0  0  0
Au  3.23709  -9.06986  3.04099  0  0  0  0
Au  1.23681  -8.99034  1.04326  0  0  0  0
Au  3.14923  -11.14055  0.8933  0  0  0  0
Au  1.27154  -11.12326  7.3071  0  0  0  0
Au  3.29748  -9.05253  7.20132  0  0  0  0
Au  1.25161  -9.0524  5.12536  0  0  0  0
Au  3.24614  -11.16178  5.13128  0  0  0  0
Au  1.22509  -6.86687  -5.11904  -0.0001  0.00032  0.00021  0
Au  3.23035  -4.77393  -5.04867  0  -0.00007  0.0003  0
Au  1.27344  -4.80054  -7.22217  -0.00019  -0.00003  0.00019  0
Au  3.23017  -6.93949  -7.17528  -0.00004  0.00035  0.00028  0
Au  1.20746  -6.8479  -1.00377  0.00046  0.00085  0.00023  0
Au  3.28129  -4.86181  -0.9517  0.00003  0.00151  0.00001  0
Au  1.18025  -4.80974  -3.01828  -0  0.00199  -0.00011  0
Au  3.25228  -6.89565  -3.00941  -0.00009  0.00042  0.00019  0
Au  1.23294  -6.9661  3.07934  0.00015  0.00043  0.00011  0
Au  3.26709  -4.85123  3.0593  0.00034  0.00107  0.00113  0
Au  1.2119  -4.8546  1.01227  -0.00078  0.00125  0.00003  0
Au  3.31621  -6.80212  1.1374  0.00055  0.00351  0.00137  0
Au  1.27978  -6.98294  7.2063  0.00022  0.00008  -0.00008  0
Au  3.26672  -4.85427  7.18271  0.00004  -0.00001  -0.0001  0
Au  1.24138  -4.82588  5.08964  -0.00002  0.0005  0.00005  0
Au  3.26246  -6.95819  5.10671  0.00017  -0.00025  0.00003  0
Au  -14.9711  -11.10461  -5.10572  0  0  0  0
Au  -12.90139  -9.02389  -5.0835  0  0  0  0
Au  -14.97725  -9.00402  -7.16779  0  0  0  0
Au  -12.90893  -11.09179  -7.21283  0  0  0  0
Au  -14.97051  -11.16203  -1.00762  0  0  0  0
Au  -12.88289  -9.04365  -1.00915  0  0  0  0
Au  -14.97619  -9.05011  -3.02403  0  0  0  0
Au  -12.90605  -11.13937  -3.05062  0  0  0  0
Au  -14.96524  -11.15165  3.05138  0  0  0  0
Au  -12.87758  -9.02451  3.0276  0  0  0  0
Au  -14.97402  -9.05507  1.00635  0  0  0  0
Au  -12.88726  -11.15015  1.01844  0  0  0  0
Au  -14.98046  -11.05693  7.13795  0  0  0  0
Au  -12.89747  -9.00513  7.15501  0  0  0  0
Au  -14.97327  -9.02837  5.03655  0  0  0  0
Au  -12.88199  -11.11566  5.08347  0  0  0  0
Au  -14.99002  -6.99311  -5.04776  -0.00012  -0.00011  -0.00007  0
Au  -12.88753  -4.87512  -5.07788  0.0001  0.00003  -0.00012  0
Au  -15.01428  -4.88227  -7.06533  0.00011  0.00004  0.00028  0
Au  -12.91785  -6.95482  -7.16687  -0.00014  0.00002  -0.00004  0
Au  -14.98306  -6.96853  -1.01305  0.00016  0.00005  0.0001  0
Au  -12.88427  -4.85601  -1.00905  0.00036  0.00002  -0.00026  0
Au  -14.99021  -4.88401  -3.04411  0.0001  -0.00002  -0.00019  0
Au  -12.88551  -6.96393  -3.03598  -0.0001  -0.00014  -0.00002  0
Au  -14.98863  -6.97031  3.0037  -0.00017  -0.00005  0.00009  0
Au  -12.89381  -4.85049  3.01398  0.00026  -0.00019  0.00014  0
Au  -15.00943  -4.85763  1.0015  0.00041  0.0001  -0.00001  0
Au  -12.88593  -6.96016  1.00893  -0.00003  0.00005  -0.00017  0
Au  -14.98409  -6.98481  7.11974  0.0002  0.00025  -0.00013  0
Au  -12.90607  -4.88061  7.11404  0.00034  -0.00004  -0.00029  0
Au  -15.0061  -4.90068  5.03151  0.00018  -0.00003  -0.0002  0
Au  -12.89232  -6.96127  5.04716  0.00008  -0.00029  -0.00025  0
Au  4.94628  -11.14735  -5.10942  0  0  0  0
Au  7.23105  -9.0349  -5.09022  0  0  0  0
Au  5.21049  -9.01325  -7.13185  0  0  0  0
Au  7.1831  -11.17223  -7.06713  0  0  0  0
Au  5.22711  -11.16441  -1.0596  0  0  0  0
Au  7.26974  -9.08542  -1.06243  0  0  0  0
Au  5.1534  -9.07579  -3.06393  0  0  0  0
Au  7.21092  -11.16965  -3.15893  0  0  0  0
Au  5.2196  -11.19494  3.01395  0  0  0  0
Au  7.28661  -9.07871  3.03429  0  0  0  0
Au  5.25263  -9.07452  1.01775  0  0  0  0
Au  7.28044  -11.18046  0.98835  0  0  0  0
Au  5.29286  -11.17209  7.19146  0  0  0  0
Au  7.30056  -9.04873  7.19421  0  0  0  0
Au  5.27899  -9.07706  5.09421  0  0  0  0
Au  7.30329  -11.1746  5.08456  0  0  0  0
Au  5.20687  -6.95002  -5.09163  -0.00012  -0  0.00032  0
Au  7.25696  -4.84755  -5.10065  0.00003  0.00014  0.00006  0
Au  5.21462  -4.81797  -7.16475  0.00005  0.00024  -0.00028  0
Au  7.23852  -6.93001  -7.1824  -0.00034  -0.00017  0.00004  0
Au  5.25615  -7.03126  -1.00801  -0.00015  0.0001  0.00018  0
Au  7.27802  -4.88413  -1.02034  0.00036  -0.00057  -0.00019  0
Au  5.25504  -4.8444  -3.02361  -0.00008  -0.00026  -0.00002  0
Au  7.25206  -6.97669  -3.06282  -0.00028  0  0.00006  0
Au  5.29211  -7.01209  3.09396  0.00078  0.00005  0.00034  0
Au  7.3002  -4.87033  3.03886  0.00011  -0.00014  0.00005  0
Au  5.33257  -4.97036  1.02095  0.00111  0.0018  -0.00001  0
Au  7.29759  -7.02828  1.0111  -0.00009  -0.00012  0.00016  0
Au  5.28269  -6.96598  7.18483  -0.00021  -0.00018  -0.00059  0
Au  7.29634  -4.85118  7.20331  -0.00012  0.00008  0.0001  0
Au  5.27827  -4.8339  5.08297  -0.0001  0.00001  -0.00024  0
Au  7.28832  -6.98023  5.10555  -0.0001  -0.00023  -0.00011  0
Au  -10.88567  -11.1387  -5.11842  0  0  0  0
Au  -8.84454  -9.05846  -5.13804  0  0  0  0
Au  -10.88384  -9.02086  -7.21425  0  0  0  0
Au  -8.87756  -11.13925  -7.23474  0  0  0  0
Au  -10.85121  -11.15172  -1.02197  0  0  0  0
Au  -8.81063  -9.05665  -1.04074  0  0  0  0
Au  -10.85947  -9.05029  -3.06106  0  0  0  0
Au  -8.84436  -11.17537  -3.08805  0  0  0  0
Au  -10.84731  -11.12997  3.048  0  0  0  0
Au  -8.81224  -9.04157  3.0589  0  0  0  0
Au  -10.83404  -9.04378  1.01177  0  0  0  0
Au  -8.81714  -11.16371  1.02231  0  0  0  0
Au  -10.89849  -11.13805  7.20719  0  0  0  0
Au  -8.85329  -9.04225  7.21782  0  0  0  0
Au  -10.85566  -9.01894  5.09779  0  0  0  0
Au  -8.85551  -11.13756  5.12285  0  0  0  0
Au  -10.85675  -6.97272  -5.11365  0.00001  -0.00008  -0.00019  0
Au  -8.79754  -4.9042  -5.14694  0.00039  -0.00027  -0.00016  0
Au  -10.85678  -4.89414  -7.20236  0.00027  -0.0002  0.00026  0
Au  -8.82407  -7.00796  -7.23419  0  -0.00056  -0.00012  0
Au  -10.83072  -6.97198  -1.02089  -0.00003  0.00014  -0.00015  0
Au  -8.78163  -4.86879  -1.03811  0.00007  -0.00038  -0  0
Au  -10.82879  -4.87174  -3.06538  0.00017  0.00009  -0.0002  0
Au  -8.81654  -6.98673  -3.08552  -0.00001  -0.00027  -0.00022  0
Au  -10.82635  -6.95135  3.03524  0.00016  -0.00012  -0.00017  0
Au  -8.78204  -4.86158  3.05156  -0.00022  -0.00024  -0.00013  0
Au  -10.81538  -4.84623  1.00602  0.00026  -0.00009  -0.00009  0
Au  -8.78969  -6.96918  1.00545  -0.00001  -0.00017  -0.00018  0
Au  -10.8729  -6.96107  7.17595  0.00005  -0.00015  -0.00003  0
Au  -8.86421  -4.86973  7.22395  -0.00004  -0.00025  -0.00008  0
Au  -10.84611  -4.85284  5.07421  0.00011  -0.00008  -0.00011  0
Au  -8.82121  -6.96355  5.11554  -0.00005  -0.00011  0.00005  0
Au  9.3396  -11.12198  -5.11953  0  0  0  0
Au  11.34059  -9.00135  -5.10666  0  0  0  0
Au  9.25571  -9.02698  -7.1856  0  0  0  0
Au  11.37034  -11.044  -7.22898  0  0  0  0
Au  9.29763  -11.16766  -1.08602  0  0  0  0
Au  11.34434  -9.03995  -1.0443  0  0  0  0
Au  9.29662  -9.05482  -3.08938  0  0  0  0
Au  11.38572  -11.12253  -3.08829  0  0  0  0
Au  9.33627  -11.15519  3.03464  0  0  0  0
Au  11.3373  -9.03752  3.0247  0  0  0  0
Au  9.30763  -9.06619  0.97878  0  0  0  0
Au  11.35377  -11.15426  0.96514  0  0  0  0
Au  9.3409  -11.13672  7.17391  0  0  0  0
Au  11.35065  -9.00017  7.17673  0  0  0  0
Au  9.32247  -9.04878  5.09261  0  0  0  0
Au  11.36275  -11.11005  5.09317  0  0  0  0
Au  9.281  -6.96381  -5.11083  -0.00033  -0.00004  0.00022  0
Au  11.32097  -4.83659  -5.09239  -0.00001  -0.00024  -0.00029  0
Au  9.29371  -4.82882  -7.17699  -0.00013  -0.00025  -0.00011  0
Au  11.31661  -6.94256  -7.18409  -0.00029  -0.00021  -0.00025  0
Au  9.29509  -6.98981  -1.04502  -0.00004  -0.00015  0.00022  0
Au  11.30865  -4.85053  -1.02983  0.00026  -0.00007  -0.00004  0
Au  9.28249  -4.85739  -3.06552  -0.00011  -0.00022  -0.00031  0
Au  11.33355  -6.95458  -3.05963  -0.00007  -0.00013  -0.00017  0
Au  9.30341  -6.98844  3.03313  -0.00017  -0.00049  0.00005  0
Au  11.29111  -4.83927  3.02855  -0.00012  -0.00021  0.00011  0
Au  9.29001  -4.86249  0.99561  0.0002  -0.00024  0.00001  0
Au  11.31882  -6.97045  0.9934  0.0003  -0.00034  -0.00023  0
Au  9.31928  -6.95021  7.18775  0.00008  -0.00011  -0.00019  0
Au  11.3331  -4.83673  7.15385  0.00004  -0.00024  0.0002  0
Au  9.29427  -4.85419  5.09371  0.00029  -0.00025  0.00015  0
Au  11.32297  -6.95846  5.06893  -0.00034  0.00006  0.00015  0
Au  -6.82195  -11.16833  -5.14476  0  0  0  0
Au  -4.73667  -9.08994  -5.12645  0  0  0  0
Au  -6.78611  -9.10475  -7.23014  0  0  0  0
Au  -4.69322  -11.21598  -7.13115  0  0  0  0
Au  -6.81766  -11.1929  -1.04927  0  0  0  0
Au  -4.77571  -9.08656  -1.04396  0  0  0  0
Au  -6.80537  -9.07521  -3.10284  0  0  0  0
Au  -4.79326  -11.18385  -3.09994  0  0  0  0
Au  -6.81457  -11.18035  3.08352  0  0  0  0
Au  -4.77146  -9.10059  3.07002  0  0  0  0
Au  -6.80002  -9.08129  1.01097  0  0  0  0
Au  -4.78189  -11.18856  1.01405  0  0  0  0
Au  -6.83004  -11.15445  7.20945  0  0  0  0
Au  -4.81004  -9.06766  7.23034  0  0  0  0
Au  -6.80345  -9.06255  5.1217  0  0  0  0
Au  -4.76039  -11.18658  5.1143  0  0  0  0
Au  -6.79071  -7.03123  -5.155  0.00017  -0.00023  -0.00002  0
Au  -4.76774  -4.92716  -5.1542  -0.00005  0.00012  -0.00038  0
Au  -6.76153  -4.9586  -7.27847  0.00005  -0.00064  -0.00049  0
Au  -4.71737  -7.08287  -7.24728  0.00053  -0.00029  -0.00016  0
Au  -6.78304  -6.99732  -1.05032  0.00007  -0.00042  -0.00011  0
Au  -4.75626  -4.89449  -1.05375  0.00026  -0.00013  -0.00018  0
Au  -6.78194  -4.90924  -3.1093  0.00016  -0.00032  0.0001  0
Au  -4.75864  -7.02471  -3.08712  0.00003  -0.00021  0.00004  0
Au  -6.78907  -6.99432  3.06785  0.0001  -0.00045  0.00004  0
Au  -4.80221  -4.89143  3.10691  0.00012  -0.00024  -0.00032  0
Au  -6.75652  -4.87465  1.01172  -0.00001  -0.00046  0.00002  0
Au  -4.77761  -7.0193  1.01268  -0.00001  -0.0001  -0.00012  0
Au  -6.82948  -6.98339  7.24181  -0.0001  -0.00015  -0.00045  0
Au  -4.79713  -4.87643  7.25861  -0.00014  -0.0002  -0.00005  0
Au  -6.81505  -4.8774  5.15555  0.00004  -0.00007  0.00011  0
Au  -4.79587  -6.99445  5.15337  0.00004  0.00001  -0.00021  0
Au  13.40913  -11.07626  -5.13067  0  0  0  0
Au  15.49625  -8.97228  -5.06379  0  0  0  0
Au  13.41017  -8.93864  -7.17696  0  0  0  0
Au  15.51753  -10.9736  -7.17598  0  0  0  0
Au  13.42969  -11.12297  -1.04118  0  0  0  0
Au  15.49387  -9.01437  -1.02319  0  0  0  0
Au  13.39831  -9.00612  -3.05261  0  0  0  0
Au  15.49476  -11.10122  -3.08494  0  0  0  0
Au  13.38729  -11.11963  3.02207  0  0  0  0
Au  15.46455  -8.9942  3.00318  0  0  0  0
Au  13.37987  -9.02122  0.98614  0  0  0  0
Au  15.48048  -11.11061  1.02064  0  0  0  0
Au  13.43011  -11.05275  7.16543  0  0  0  0
Au  15.49049  -8.93689  7.11043  0  0  0  0
Au  13.37788  -8.99427  5.05543  0  0  0  0
Au  15.4725  -11.08362  5.04907  0  0  0  0
Au  13.37939  -6.92329  -5.0772  -0.00015  -0  -0.00016  0
Au  15.46349  -4.80711  -5.03612  -0.00027  0.00005  -0.00037  0
Au  13.37372  -4.86169  -7.14275  -0.0004  -0.00062  -0.00043  0
Au  15.49768  -6.89993  -7.12328  -0  -0.00015  -0.00009  0
Au  13.36846  -6.93496  -1.02158  0.00008  -0.00015  -0.00014  0
Au  15.46141  -4.81418  -1.02002  -0.00003  -0.00024  -0.00014  0
Au  13.36212  -4.82787  -3.03629  -0.00011  -0.00006  -0.00008  0
Au  15.47775  -6.92672  -3.02812  -0.00002  -0.00022  -0.00001  0
Au  13.35797  -6.94191  3.00606  -0.00028  -0.00016  0.00007  0
Au  15.44233  -4.8084  3.00948  -0.00042  0.0001  -0.00023  0
Au  13.34877  -4.82313  0.99875  -0.00014  -0.00005  0.00003  0
Au  15.46386  -6.91565  0.98652  -0.00034  0.00008  -0.00017  0
Au  13.37006  -6.9264  7.13261  -0.00023  -0.00052  -0.00006  0
Au  15.43436  -4.85436  7.07925  -0.00047  -0.00011  -0.00003  0
Au  13.33784  -4.8426  5.03378  -0.00033  0.00001  0.00024  0
Au  15.4555  -6.91705  5.01248  -0.00035  -0.00026  -0.00015  0
Au  -2.64625  -11.20474  -5.01238  0  0  0  0
Au  -0.62611  -9.0742  -5.07956  0  0  0  0
Au  -2.61476  -9.17322  -7.15564  0  0  0  0
Au  -0.4204  -11.33596  -6.89239  0  0  0  0
Au  -2.72903  -11.19809  -1.0698  0  0  0  0
Au  -0.69009  -9.04857  -1.02309  0  0  0  0
Au  -2.71069  -9.08485  -3.06436  0  0  0  0
Au  -0.49648  -11.17363  -3.00876  0  0  0  0
Au  -2.69631  -11.20333  3.03085  0  0  0  0
Au  -0.75976  -9.07406  3.07137  0  0  0  0
Au  -2.73832  -9.09842  0.99021  0  0  0  0
Au  -0.61301  -11.20533  0.89562  0  0  0  0
Au  -2.78474  -11.15703  7.25871  0  0  0  0
Au  -0.7576  -9.03895  7.247  0  0  0  0
Au  -2.77252  -9.07727  5.1454  0  0  0  0
Au  -0.74442  -11.17032  5.17523  0  0  0  0
Au  -2.70372  -7.01987  -5.15339  0.00005  -0.00019  -0.00005  0
Au  -0.75929  -4.78022  -5.12657  -0.00018  0.00023  0.00001  0
Au  -2.76807  -4.89501  -7.24535  -0.0002  -0.0001  -0.0002  0
Au  -0.7206  -6.96392  -7.23398  0.00001  0.00014  0.00002  0
Au  -2.771  -7.00782  -1.02776  0.00011  -0.00028  0.00004  0
Au  -0.85586  -4.89189  -0.97632  -0.00063  -0.00009  0.00025  0
Au  -2.77501  -4.9074  -3.11475  -0.00045  0.00006  0.00015  0
Au  -0.78078  -6.95407  -3.06913  0.00002  0.00044  -0.00005  0
Au  -2.79669  -7.00857  3.08313  0.00016  -0.00008  0.00007  0
Au  -0.80611  -4.88225  3.06823  -0.00007  0.00011  0.00021  0
Au  -2.8211  -4.87936  1.02661  -0.00032  0.00021  0.00002  0
Au  -0.78093  -6.9864  1.0409  0.00029  0.0005  0.00019  0
Au  -2.79124  -6.98761  7.23913  -0.0003  -0.00005  -0.00003  0
Au  -0.74679  -4.88464  7.2305  -0.0002  -0.00024  0.00002  0
Au  -2.77198  -4.88725  5.14868  -0.00017  -0.00011  0.00004  0
Au  -0.76424  -6.98721  5.13719  -0.00003  0.00011  -0.00007  0
C  -1.52473  0.17131  2.77277  0  0.00001  -0.00002  0
C  -0.03573  0.19231  3.16777  0.00005  -0.00007  0.00001  0
C  0.53627  -1.23569  3.09277  0.00006  -0.00006  -0.00012  0
C  2.02427  -1.21469  3.48677  0.00005  -0.00018  0  0
H  -2.06273  -0.46369  3.44477  0.00011  -0.00013  -0.00002  0
H  -1.92173  1.16431  2.82477  0.00034  -0.00056  0.00013  0
H  -1.62373  -0.19969  1.77477  0.00061  -0.00036  0.00006  0
H  0.50227  0.82731  2.49477  0.00004  -0.00203  -0.00013  0
H  0.06427  0.56431  4.16577  0.00002  -0.00047  -0.00004  0
H  -0.00173  -1.87069  3.76477  0.00024  -0.00082  0.00023  0
H  0.43727  -1.60769  2.09477  -0.00386  0.00091  0.0009  0
H  2.42127  -2.20669  3.43477  -0.00099  -0.00004  -0.00053  0
H  2.12427  -0.84269  4.48477  0.00011  -0.00152  -0.00015  0
H  2.56327  -0.57969  2.81477  0.00007  -0.00077  -0.00003  0
C  3.50747  0.17131  -1.56997  -0.00006  -0.00002  0.00004  0
C  4.99647  0.19231  -1.17497  0.00007  0.00028  0.00026  0
C  5.56847  -1.23569  -1.24997  -0.00021  0.00036  -0.0003  0
C  7.05647  -1.21469  -0.85597  0.00005  -0.00001  -0.00001  0
H  2.96947  -0.46369  -0.89797  0.00047  -0.00041  0.00046  0
H  3.11047  1.16431  -1.51797  0.00091  0.00094  0.00037  0
H  3.40847  -0.19969  -2.56797  -0.00029  -0.0002  0.00065  0
H  5.53447  0.82731  -1.84797  -0.00049  -0.00103  0.00014  0
H  5.09647  0.56431  -0.17697  -0.00063  -0.00045  -0.00001  0
H  5.03047  -1.87069  -0.57797  -0.00131  0.00031  0.00054  0
H  5.46947  -1.60769  -2.24797  0.00262  -0.00037  -0.00181  0
H  7.45347  -2.20669  -0.90797  0.00285  0.00021  -0.0009  0
H  7.15647  -0.84269  0.14203  -0.00012  -0.00094  0.00008  0
H  7.59547  -0.57969  -1.52797  -0.00043  -0.00077  -0.00015  0
C  -6.4077  0.17131  -1.96935  0.00029  0.00024  -0.00003  0
C  -4.9187  0.19231  -1.57435  -0.00002  -0.00002  0  0
C  -4.3467  -1.23569  -1.64935  -0.00001  -0.00003  0  0
C  -2.8587  -1.21469  -1.25535  -0  -0.00002  0  0
H  -6.9457  -0.46369  -1.29735  0.00144  0.00039  -0.00005  0
H  -6.8047  1.16431  -1.91735  -0.0004  -0.00065  -0.00016  0
H  -6.5067  -0.19969  -2.96735  -0.00021  -0.00018  -0.00024  0
H  -4.3807  0.82731  -2.24735  -0.00002  -0.00005  0.00001  0
H  -4.8187  0.56431  -0.57635  -0.00004  -0.00006  -0.00002  0
H  -4.8847  -1.87069  -0.97735  -0.00004  -0.00024  -0.00001  0
H  -4.4457  -1.60769  -2.64735  -0.00049  -0.00052  -0.00004  0
H  -2.4617  -2.20669  -1.30735  0.00004  -0.00038  0.00002  0
H  -2.7587  -0.84269  -0.25735  -0.00001  -0.00009  -0.00001  0
H  -2.3197  -0.57969  -1.92735  0.00001  -0.00008  0.00002  0
bond 256 257 0.5 1.54064
bond 257 258 0.5 1.54013
bond 258 259 0.5 1.53942
bond 256 260 0.5 1.0697
bond 256 261 0.5 1.07068
bond 256 262 0.5 1.06932
bond 257 263 0.5 1.07033
bond 257 264 0.5 1.06976
bond 258 265 0.5 1.0697
bond 258 266 0.5 1.06967
bond 259 267 0.5 1.06976
bond 259 268 0.5 1.06976
bond 259 269 0.5 1.0702
bond 270 271 0.5 1.54064
bond 271 272 0.5 1.54013
bond 272 273 0.5 1.53942
bond 270 274 0.5 1.0697
bond 270 275 0.5 1.07068
bond 270 276 0.5 1.06932
bond 271 277 0.5 1.07033
bond 271 278 0.5 1.06976
bond 272 279 0.5 1.0697
bond 272 280 0.5 1.06967
bond 273 281 0.5 1.06976
bond 273 282 0.5 1.06976
bond 273 283 0.5 1.0702
bond 284 285 0.5 1.54064
bond 285 286 0.5 1.54013
bond 286 287 0.5 1.53942
bond 284 288 0.5 1.0697
bond 284 289 0.5 1.07068
bond 284 290 0.5 1.06932
bond 285 291 0.5 1.07033
bond 285 292 0.5 1.06976
bond 286 293 0.5 1.0697
bond 286 294 0.5 1.06967
bond 287 295 0.5 1.06976
bond 287 296 0.5 1.06976
bond 287 297 0.5 1.0702
angle 256 257 258 5.0 1.91115
angle 257 258 259 5.0 1.91121
angle 260 256 261 5.0 1.91087
angle 261 256 262 5.0 1.91004
angle 262 256 260 5.0 1.91112
angle 257 256 260 5.0 1.9104
angle 257 256 261 5.0 1.91056
angle 257 256 262 5.0 1.9108
angle 267 259 268 5.0 1.91041
angle 268 259 269 5.0 1.90963
angle 269 259 267 5.0 1.91006
angle 258 259 267 5.0 1.91094
angle 258 259 268 5.0 1.9112
angle 258 259 269 5.0 1.91156
angle 263 257 264 5.0 1.91061
angle 265 258 266 5.0 1.91042
angle 256 257 263 5.0 1.90994
angle 256 257 264 5.0 1.91163
angle 257 258 265 5.0 1.9103
angle 257 258 266 5.0 1.91082
angle 258 257 263 5.0 1.91005
angle 258 257 264 5.0 1.91043
angle 259 258 265 5.0 1.91077
angle 259 258 266 5.0 1.91028
angle 270 271 272 5.0 1.91115
angle 271 272 273 5.0 1.91121
angle 274 270 275 5.0 1.91087
angle 275 270 276 5.0 1.91004
angle 276 270 274 5.0 1.91112
angle 271 270 274 5.0 1.9104
angle 271 270 275 5.0 1.91056
angle 271 270 276 5.0 1.9108
angle 281 273 282 5.0 1.91041
angle 282 273 283 5.0 1.90963
angle 283 273 281 5.0 1.91006
angle 272 273 281 5.0 1.91094
angle 272 273 282 5.0 1.9112
angle 272 273 283 5.0 1.91156
angle 277 271 278 5.0 1.91061
angle 279 272 280 5.0 1.91042
angle 270 271 277 5.0 1.90994
angle 270 271 278 5.0 1.91163
angle 271 272 279 5.0 1.9103
angle 271 272 280 5.0 1.91082
angle 272 271 277 5.0 1.91005
angle 272 271 278 5.0 1.91043
angle 273 272 279 5.0 1.91077
angle 273 272 280 5.0 1.91028
angle 284 285 286 5.0 1.91115
angle 285 286 287 5.0 1.91121
angle 288 284 289 5.0 1.91087
angle 289 284 290 5.0 1.91004
angle 290 284 288 5.0 1.91112
angle 285 284 288 5.0 1.9104
angle 285 284 289 5.0 1.91056
angle 285 284 290 5.0 1.9108
angle 295 287 296 5.0 1.91041
angle 296 287 297 5.0 1.90963
angle 297 287 295 5.0 1.91006
angle 286 287 295 5.0 1.91094
angle 286 287 296 5.0 1.9112
angle 286 287 297 5.0 1.91156
angle 291 285 292 5.0 1.91061
angle 293 286 294 5.0 1.91042
angle 284 285 291 5.0 1.90994
angle 284 285 292 5.0 1.91163
angle 285 286 293 5.0 1.9103
angle 285 286 294 5.0 1.91082
angle 286 285 291 5.0 1.91005
angle 286 285 292 5.0 1.91043
angle 287 286 293 5.0 1.91077
angle 287 286 294 5.0 1.91028
torsion 256 257 258 259 10.0 3.14113
torsion 256 257 258 265 10.0 1.23119
torsion 256 257 258 266 10.0 1.23089
torsion 259 258 257 263 10.0 1.23129
torsion 259 258 257 264 10.0 1.23039
torsion 270 271 272 273 10.0 3.14113
torsion 270 271 272 279 10.0 1.23119
torsion 270 271 272 280 10.0 1.23089
torsion 273 272 271 277 10.0 1.23129
torsion 273 272 271 278 10.0 1.23039
torsion 284 285 286 287 10.0 3.14113
torsion 284 285 286 293 10.0 1.23119
torsion 284 285 286 294 10.0 1.23089
torsion 287 286 285 291 10.0 1.23129
torsion 287 286 285 292 10.0 1.23039
