300
#symbol   rx   ry   rz   vx   vy   vz   charge   damp   ---  Molecular Workbench
Ar  -14.7975798  12.1782703  19.7966728  -0.00002  -0.00236  0.00016  0  0
Ar  6.8557405  4.7088699  19.7201195  -0.00187  0.00028  -0.00077  0  0
Ar  -11.1169205  -8.601181  -3.5511498  0.00127  -0.00066  0.0039  0  0
Ar  -11.2172003  -11.8658705  -2.1633098  0.00134  -0.00014  0.00145  0  0
Ar  -13.7619209  7.8288803  5.0419497  0.00044  -0.00135  -0.00223  0  0
Ar  -14.7977095  -11.818821  16.6645184  -0.00015  -0.0002  -0.00004  0  0
Ar  4.0134902  -3.6461399  16.8344707  -0.00049  -0.0025  -0.00025  0  0
Ar  -9.1754093  -13.5546198  9.8516607  0.00092  -0.00079  0.00176  0  0
Ar  3.4926202  3.27461  19.4161587  -0.00218  -0.00093  -0.00034  0  0
Ar  -14.7948294  -9.9484692  19.7973003  -0.00001  0.00202  -0.00021  0  0
Ar  -8.5804892  -2.0675299  14.1458101  -0.00074  0.00191  -0.00064  0  0
Ar  -8.8462  -0.05786  17.0456409  -0.00092  -0.00515  0.00082  0  0
Ar  -8.376029  12.2140694  16.4595394  -0.00519  -0.00296  0.00524  0  0
Ar  -14.6963701  -14.8972006  -1.40704  0.00229  0.00084  -0.00164  0  0
Ar  -5.7701402  -14.87708  6.1347303  -0.00071  0.00119  0.00217  0  0
Ar  -12.1064892  -11.4362888  19.7968807  0.00238  -0.00125  -0.0003  0  0
Ar  -11.9103699  -5.6394401  1.5346299  -0.00148  0.00488  -0.00025  0  0
Ar  -5.4142404  5.7897396  17.8748074  0.00081  0.00243  -0.00164  0  0
Ar  -4.6956401  -15.2572002  19.7768002  0.00005  0.00253  -0.00122  0  0
Ar  -7.8544807  -15.2969294  16.7782803  -0.00389  0.00021  0.00452  0  0
Ar  -11.9693604  8.8818207  15.7045794  0.00178  0.00014  0.00176  0  0
Ar  -11.6124802  3.8597  7.28019  -0.00065  -0.00192  0.00245  0  0
Ar  -10.3520403  13.1263208  11.6612511  0.00023  0.00137  -0.00074  0  0
Ar  0.21115  5.0830498  18.1555691  -0.00205  -0.00034  0.00163  0  0
Ar  5.02635  3.1207099  15.9188099  0.00027  -0.00189  0.0033  0  0
Ar  -5.6084399  -13.311841  -0.41581  -0.00288  -0.00045  0.00169  0  0
Ar  -3.5342801  -12.2533207  2.1616299  0.0011  0.00283  0.00031  0  0
Ar  -9.4565086  4.5552001  11.3478498  -0.0011  0.00213  -0.00295  0  0
Ar  -12.0936003  -7.1111302  4.5290098  -0.0003  -0.00251  -0.00204  0  0
Ar  -11.1374092  -15.0292406  -2.0670998  -0.00141  -0.00019  -0.00135  0  0
Ar  -14.5652208  -15.2603302  17.3253174  0.0033  -0.00101  -0.00354  0  0
Ar  -11.6101809  -9.1029806  0.09979  0.00231  -0.00128  -0.00071  0  0
Ar  -6.4415603  6.2257199  7.4983802  -0.00143  -0.00097  0.00219  0  0
Ar  1.3439499  -8.1832008  10.6504498  -0.00248  0.00494  0.00278  0  0
Ar  -5.6223497  5.2896996  14.5432501  -0.00369  0.00184  0.00116  0  0
Ar  -8.2192202  -2.0234802  19.7968197  0.00188  -0.00236  -0.0001  0  0
Ar  3.50035  -11.6650305  17.1696205  -0.00075  -0.0042  0.00148  0  0
Ar  -14.0827694  -12.2791891  0.99189  0.0027  0.00219  -0.0018  0  0
Ar  -14.7975397  -12.406929  4.88203  -0.00009  0.00108  -0.00125  0  0
Ar  -5.3467503  14.6060095  15.71632  -0.00528  0.00085  -0.0038  0  0
Ar  -8.1405096  -15.2846889  13.0638008  -0.00174  -0.00137  -0.00245  0  0
Ar  -14.7974491  -14.9409199  -7.8547206  -0.00001  0.00177  -0.00184  0  0
Ar  -11.63797  -1.2961402  -0.33663  -0.00131  -0.00118  -0.00059  0  0
Ar  -14.7975893  5.6149602  19.7966824  -0.00006  0.0034  0.00007  0  0
Ar  6.7125902  -11.7207403  15.1277704  -0.0011  -0.00151  -0.00327  0  0
Ar  -14.7975492  -2.2757802  19.7609711  -0.00006  -0.00231  -0.0009  0  0
Ar  -11.9292698  -9.5271502  7.5341306  -0.0012  -0.00172  -0.00121  0  0
Ar  -12.0501404  10.3185005  3.1960099  -0.00038  0.00075  -0.00145  0  0
Ar  -4.9630799  12.0642805  18.2169418  -0.00531  0.00297  -0.00034  0  0
Ar  -11.7390089  -15.0164995  1.76796  -0.00174  -0.0012  0.00238  0  0
Ar  2.8116601  -15.2697697  19.7120914  -0.00189  0.00413  -0.00182  0  0
Ar  -5.7242999  8.5907001  16.038681  0.00122  0.00257  -0.00018  0  0
Ar  -14.5470695  -8.2512808  2.5099702  0.00173  -0.00103  0.00055  0  0
Ar  -14.7906094  1.05202  -5.5605402  0.0002  0.00049  0.00041  0  0
Ar  -11.7530203  11.3022299  18.3055077  0.00073  -0.00109  0.00465  0  0
Ar  -14.7767591  8.8809299  -1.5537699  0.00121  -0.00145  -0.00055  0  0
Ar  -14.2591095  -1.4730101  -2.7842  0.00243  -0.00234  -0.00266  0  0
Ar  -3.8676801  -11.2058401  5.3226099  0.0018  -0.00402  0.00069  0  0
Ar  -8.08389  11.1640806  13.3932009  0.00231  0.00158  -0.00197  0  0
Ar  -14.7804289  -9.20714  5.98241  0.00117  0.00212  0.00554  0  0
Ar  -12.7772493  -15.2080297  -4.9637198  -0.0007  0.00002  0.00045  0  0
Ar  -5.2021699  -0.93474  12.7177696  0.00139  0.00135  -0.00551  0  0
Ar  -8.1115503  -7.2589498  -1.12359  -0.00149  0.00004  -0.0041  0  0
Ar  -4.0100102  -10.5183506  16.4134102  0.00025  -0.00103  -0.00328  0  0
Ar  -14.6458607  -4.77915  3.4070802  0.00071  -0.00037  0.00007  0  0
Ar  -11.1453905  11.9152603  14.6228409  -0.00466  -0.00299  -0.00032  0  0
Ar  -14.6280613  10.4950294  16.6883888  0.00199  -0.00515  0.00103  0  0
Ar  -8.72686  1.6907201  13.6216612  -0.00199  -0.00321  0.00351  0  0
Ar  0.91251  -12.0822401  19.495739  -0.00051  0.00027  0.00141  0  0
Ar  -2.45313  9.0202303  16.4946308  0.00517  0.00179  0.0045  0  0
Ar  -3.5065  -11.6200409  13.1670809  -0.00317  0.00174  0.00082  0  0
Ar  -14.7975492  6.9439797  16.801878  -0.00006  0.00152  -0.0036  0  0
Ar  -14.7943201  -9.8878202  -1.7959201  0.00003  -0.00209  -0.0005  0  0
Ar  -1.3587999  -5.1690998  13.9001198  -0.00061  0.00099  0.00046  0  0
Ar  -8.7890892  0.10383  5.1482897  -0.00025  -0.00141  0.00022  0  0
Ar  -0.26091  -8.7029095  13.6245699  0.00083  0.0014  0.00039  0  0
Ar  -14.7975397  -13.2582102  19.7973003  -0.00013  0.00071  -0.00065  0  0
Ar  -8.26684  -15.2389202  1.7958601  0.00149  0.00198  -0.00238  0  0
Ar  -6.2298698  -12.2556496  11.1136703  -0.00316  0.00205  0.0002  0  0
Ar  -7.5708404  4.6877298  4.9038701  0.00196  0.00175  -0.00032  0  0
Ar  -1.0947499  -15.0159998  19.7909203  0.00138  -0.00126  0.00087  0  0
Ar  -0.9272  -14.5844994  13.5982904  -0.00127  -0.001  -0.00195  0  0
Ar  1.9853002  -3.66346  19.7723007  -0.00072  -0.00182  0.00044  0  0
Ar  -14.7975397  10.5998802  9.3485203  -0.00002  0.00401  -0.00407  0  0
Ar  -14.6552811  4.6869097  -3.30404  -0.00075  0.00067  -0.00077  0  0
Ar  -8.3154697  -15.0900002  19.7881088  -0.0014  -0.00059  0.00023  0  0
Ar  -14.5525093  -0.52314  -9.4535694  -0.00269  0.00647  -0.00023  0  0
Ar  -1.9779601  -7.16677  10.818121  0.00074  -0.00196  0.00136  0  0
Ar  -1.20658  -10.8415699  10.6235704  -0.00137  -0.00239  0.00041  0  0
Ar  -10.0600901  -12.0626497  7.1894898  0.00323  -0.00281  -0.00198  0  0
Ar  -7.6189198  -1.8592899  2.25824  -0.00206  -0.0023  0.00398  0  0
Ar  0.45682  -15.0829601  17.0787392  -0.00087  0.00083  -0.0002  0  0
Ar  -0.72761  -11.9584599  15.79739  0.00209  0.00145  -0.0009  0  0
Ar  2.8899801  -15.1804895  12.79387  -0.00121  0.00165  0.00077  0  0
Ar  -2.9874401  -3.66555  16.4545879  0.00036  -0.00253  0.00108  0  0
Ar  -14.7646894  15.0269499  10.2282009  0.00356  0.00287  0.0025  0  0
Ar  -11.2924089  -4.7948403  -1.5157599  -0.00113  0.00207  0.00273  0  0
Ar  0.30476  -1.47001  17.2923412  0.00438  -0.00389  -0.00068  0  0
Ar  -14.3738003  3.8065701  4.19313  -0.00484  -0.00573  0.00096  0  0
Ar  -9.5961695  -13.0475693  -5.0657301  -0.00208  0.00315  0.00186  0  0
Ar  -14.7976294  1.8687599  19.7931004  -0.00006  -0.00052  -0.00079  0  0
Ar  -5.8353004  -1.88861  16.1111088  0.00128  0.00061  -0.00156  0  0
Ar  -2.9741399  -12.32444  19.6541576  -0.00193  -0.0004  -0.00045  0  0
Ar  -8.86973  13.6680708  7.1145406  -0.00324  0.00343  0.00236  0  0
Ar  -11.6329403  3.06091  13.3453503  0.00026  -0.00012  0.00265  0  0
Ar  -11.8165293  -11.3078604  10.4174089  0.00134  -0.00197  -0.00063  0  0
Ar  -12.3387604  12.9574995  8.8345995  0.0007  -0.00122  -0.00475  0  0
Ar  -11.2981806  10.1885405  10.7527895  0.00065  0.00319  0.0007  0  0
Ar  -14.7635403  13.4634094  -0.59666  -0.00338  0.00387  -0.00214  0  0
Ar  -8.952529  -15.2415295  6.6511302  -0.00287  -0.00045  0.00063  0  0
Ar  -14.7955599  -15.2950602  10.5857897  0.00165  0.00002  -0.00482  0  0
Ar  1.4356799  -12.053381  13.2597198  0.00192  0.00044  -0.00276  0  0
Ar  -4.6336799  -14.8344688  12.9582405  0.00312  0.00012  -0.00039  0  0
Ar  -1.7932901  -7.4725304  16.7221508  0.00063  -0.0009  -0.00033  0  0
Ar  10.3698301  -13.4792595  18.4586391  -0.00096  -0.00087  0.00124  0  0
Ar  -9.6454  -5.5683799  3.98332  -0.00195  0.00254  -0.00042  0  0
Ar  -12.068181  5.1918802  16.2557487  -0.00179  0.00353  0.00185  0  0
Ar  1.0074099  -13.9443398  9.9981699  -0.00276  0.00438  -0.00002  0  0
Ar  1.1872201  -6.9239798  19.2410011  -0.00162  0.00021  -0.00015  0  0
Ar  -6.3368707  -6.1135902  1.87792  -0.00326  0.00066  0.0036  0  0
Ar  1.1717801  -10.7743797  8.4190998  -0.00466  0.00159  0.00417  0  0
Ar  -6.8058305  -3.6933198  5.2249699  -0.00292  -0.00361  0.00441  0  0
Ar  4.1803799  -4.1838799  13.7104893  0.00025  -0.00301  0.00124  0  0
Ar  -1.1084599  -9.459569  19.7724419  -0.00109  0.00109  0.0015  0  0
Ar  1.23856  -9.4162998  16.7870712  0.00504  -0.00163  -0.00038  0  0
Ar  -8.5144291  -3.98031  0.05448  -0.00129  -0.0001  -0.00043  0  0
Ar  -2.7396901  6.7426496  19.7947311  0.00202  0.00073  -0.00012  0  0
Ar  -8.4903994  2.33898  8.0356493  -0.00094  0.0041  0.00247  0  0
Ar  -7.90904  -12.8873005  4.08463  0.00165  -0.00167  -0.00389  0  0
Ar  -12.1605101  -15.26614  8.2816696  0.00264  0.00458  0.00159  0  0
Ar  -9.13867  -9.0243101  5.9152603  0.00197  -0.00131  0.00421  0  0
Ar  -1.9495599  -3.57213  10.5068798  0.00388  -0.0024  -0.00321  0  0
Ar  -8.41539  -3.89048  10.6215506  -0.00157  0.00074  0.0029  0  0
Ar  -9.129261  -9.8225498  19.7893505  0.00117  0.00086  0.00031  0  0
Ar  -9.6167498  -12.6507006  17.6230812  0.00168  0.00198  -0.0007  0  0
Ar  0.15872  14.5627403  19.7884407  -0.00111  0.00334  0.0001  0  0
Ar  -8.6213217  13.2254095  19.79006  0.0005  0.0009  0.00016  0  0
Ar  -12.0166893  6.2111101  2.91431  0.00187  -0.00029  0.0021  0  0
Ar  0.89942  11.4393988  17.1535187  0.00319  0.00116  -0.00111  0  0
Ar  -14.7974892  -10.5988007  -8.2972403  0.00001  0.00387  -0.00283  0  0
Ar  -14.7565689  -15.2808294  13.9054289  -0.00019  0.00048  -0.00138  0  0
Ar  4.63165  7.1431298  19.6485195  0.00005  -0.0019  0.0007  0  0
Ar  -14.4680901  -6.8316603  -0.80277  -0.00197  -0.00125  -0.00174  0  0
Ar  -11.2562695  -2.2355602  16.3204803  0.00335  -0.00025  0.00288  0  0
Ar  -0.06554  11.3719702  12.3146801  0.00432  0.00098  -0.00217  0  0
Ar  -0.92431  1.9663402  19.5425606  0.00133  0.00016  -0.00274  0  0
Ar  -3.1465099  14.5103207  18.3794098  0.0005  -0.00417  0.00008  0  0
Ar  4.14782  -9.576889  13.6451902  0.00187  -0.00122  0.00112  0  0
Ar  1.18595  -5.9625101  15.9788294  0.0014  -0.00063  0.00197  0  0
Ar  -2.02986  0.33395  9.8506298  -0.00019  -0.00005  0.00255  0  0
Ar  -8.0263004  -2.0611298  7.6067801  0.00411  0.00325  -0.00033  0  0
Ar  -14.5336695  14.9392595  2.6828399  -0.00051  0.00568  -0.0054  0  0
Ar  3.2187898  6.3566704  16.3796406  -0.00067  0.00241  0.00044  0  0
Ar  -4.5184102  3.1006801  19.7023907  -0.00171  -0.00464  -0.00133  0  0
Ar  -1.94969  13.0512609  15.5234098  -0.00031  0.00007  -0.00317  0  0
Ar  -12.2565393  1.39281  3.20736  -0.00011  0.00053  -0.0041  0  0
Ar  -6.4331903  3.4809301  11.9612007  -0.00243  -0.00146  -0.00091  0  0
Ar  -14.6755095  -8.8250008  -5.0580401  -0.00085  -0.0021  -0.00166  0  0
Ar  -11.6113815  -0.3804  7.0476699  -0.00218  0.00069  -0.00295  0  0
Ar  -11.2163897  1.5584099  10.2239408  0.00014  0.00088  0.00091  0  0
Ar  -6.3174205  -6.8188105  10.5167999  0.00231  0.00141  0.00093  0  0
Ar  -6.40835  -15.2849598  9.3651209  0.00509  0.00118  0.00278  0  0
Ar  -14.7960691  6.0126801  7.7596898  0.00009  -0.00132  0.00033  0  0
Ar  -14.6834803  1.8687299  14.0738897  0.00161  -0.00073  -0.00352  0  0
Ar  -14.7974892  -5.8998404  6.4980202  0.00002  0.00076  0.00124  0  0
Ar  -14.7673607  11.29877  5.9098301  -0.00322  -0.00025  -0.00145  0  0
Ar  -11.0621099  2.62552  0.05237  0.00125  -0.00485  0.00022  0  0
Ar  -11.4715691  -2.3432899  9.9917698  -0.00119  -0.00171  -0.001  0  0
Ar  -8.5291605  -0.47898  10.3969097  -0.00312  -0.00319  0.00045  0  0
Ar  -7.9714603  -6.0889697  7.5817599  0.00422  -0.00247  -0.00007  0  0
Ar  -14.5397196  -12.6002207  -3.8345299  0.00262  0.00196  -0.00197  0  0
Ar  -6.9245105  -12.0896997  7.6440501  -0.0027  -0.00027  -0.00265  0  0
Ar  -14.3783808  4.6345606  0.88579  -0.00517  0.00035  0.00153  0  0
Ar  -9.5072603  5.9874301  0.45071  0.00084  -0.00082  -0.00228  0  0
Ar  1.5297199  3.1413698  13.2662802  -0.00096  0.00132  -0.00077  0  0
Ar  -1.64713  -9.2606001  7.2821898  0.00027  -0.00321  -0.00046  0  0
Ar  -8.6186705  14.8291101  13.80478  0.0045  0.00272  -0.00164  0  0
Ar  -11.39711  1.5600499  16.2835808  -0.00203  -0.00319  -0.00102  0  0
Ar  -4.00313  -8.5459604  12.9155197  -0.0034  0.00329  0.0022  0  0
Ar  -9.6888704  -12.0395594  0.86169  0.0009  -0.00072  -0.00225  0  0
Ar  -4.7069397  -3.9526503  13.7118702  0.00269  -0.00235  -0.00075  0  0
Ar  -14.7976398  -5.6427498  19.7976818  -0.00012  0.00028  0.00012  0  0
Ar  -2.6611097  3.7114701  17.1911793  -0.00139  0.00023  0.00251  0  0
Ar  -1.42109  -2.2830801  19.7769108  0.00278  0.00122  0.00068  0  0
Ar  -2.0304801  10.7629299  19.3577385  0.00101  0.00149  -0.00256  0  0
Ar  6.9465404  -10.3276806  18.6482105  -0.00357  -0.00119  -0.00118  0  0
Ar  -6.0545106  15.2286806  19.5386105  -0.00143  0.00553  0.00148  0  0
Ar  4.4031401  -6.8318405  16.5289803  0.00134  -0.00164  -0.00257  0  0
Ar  -8.3096199  9.96525  19.79422  0.00044  0.00183  -0.00027  0  0
Ar  0.9430601  -2.2915199  12.9892893  -0.002  0.00285  0.00071  0  0
Ar  -5.4311604  0.67614  8.5931902  0.00058  -0.00534  -0.00008  0  0
Ar  5.6677499  -6.0688801  19.79739  0.00033  -0.00121  -0.00026  0  0
Ar  -7.6863799  -5.8418803  13.8048801  0.0015  -0.00197  0.00172  0  0
Ar  -14.7975397  -8.0965796  17.2108192  -0.0001  0.00122  0.00086  0  0
Ar  -8.2533302  6.0949402  19.5402718  -0.00465  -0.0051  -0.00043  0  0
Ar  -2.1851599  2.5957701  13.95121  0.00008  0.00031  0.0009  0  0
Ar  -5.4461203  8.7329597  19.6476421  -0.00057  -0.00122  -0.00179  0  0
Ar  -8.9990091  -8.4987602  2.4025502  -0.006  -0.00357  0.00245  0  0
Ar  -6.07724  9.39569  10.7402601  -0.00277  -0.00164  0.00148  0  0
Ar  -6.0711999  -7.6803699  4.9308205  0.00173  0.00043  -0.00169  0  0
Ar  7.52706  -15.2407293  19.417099  0.00118  0.00083  -0.00172  0  0
Ar  -5.1730399  14.4461193  10.8351202  0.00293  -0.0034  0.00074  0  0
Ar  -14.7752295  9.09058  19.7859592  -0.00053  -0.00145  0.00061  0  0
Ar  -14.6266499  0.91991  0.8705201  -0.0017  -0.00048  -0.00043  0  0
Ar  -3.0520101  -2.2626302  7.29565  0.00175  0.00257  0.00124  0  0
Ar  -14.3309402  1.7685  6.8337102  -0.00198  0.00061  -0.00117  0  0
Ar  -4.6039195  -6.2548704  7.7157702  0.00155  -0.00167  -0.00366  0  0
Ar  -14.7975092  -15.1967201  2.9069402  -0.00004  -0.0009  -0.00082  0  0
Ar  -8.6214409  -3.8540998  16.9295101  0.00036  0.00321  0.00038  0  0
Ar  -12.0022898  15.163331  13.7309599  -0.0031  -0.00038  0.00153  0  0
Ar  -2.7688298  -13.6916304  10.1220007  -0.00346  0.00238  -0.00198  0  0
Ar  -5.2441301  -3.32708  10.1940298  0.00102  0.00319  -0.00312  0  0
Ar  -14.7975397  -15.2813501  6.3485603  -0.00005  0.00103  0.00029  0  0
Ar  -14.5915298  7.5092897  10.8068399  -0.00101  0.00363  -0.00177  0  0
Ar  3.8527  -9.1887302  19.6880493  0.00214  -0.00199  -0.00338  0  0
Ar  0.7993299  8.8565998  19.7207012  -0.00129  -0.00061  -0.00442  0  0
Ar  -7.7807698  10.5249004  7.9033599  0.00432  0.00069  -0.00104  0  0
Ar  8.0170097  -15.2290297  15.75776  -0.00297  -0.00121  -0.00025  0  0
Ar  -7.5289898  -9.328701  12.89678  0.00197  -0.00215  0.00128  0  0
Ar  -11.6923904  -2.6646099  4.0932798  0.00278  0.00202  -0.00104  0  0
Ar  -11.6146002  6.9765806  13.1290503  -0.00329  0.0002  0.00304  0  0
Ar  2.1447599  -0.08847  19.7743492  0.00235  -0.00035  -0.00002  0  0
Ar  -14.7973003  -1.16591  3.6688197  -0.00014  0.00008  0.00291  0  0
Ar  -10.1726294  15.1193504  16.9258575  -0.00072  -0.00473  -0.00301  0  0
Ar  3.3800099  -0.28755  15.1079302  -0.00263  -0.00164  -0.00113  0  0
Ar  -2.53093  0.51292  16.7338009  0.00167  -0.00525  0.00333  0  0
Ar  -9.9433994  6.9216499  6.1669497  0.0028  0.00201  -0.0036  0  0
Ar  -11.7681103  -14.6391897  4.9822297  -0.00198  -0.0019  -0.0013  0  0
Ar  -11.5721493  -0.20702  13.3094397  0.0044  -0.00327  -0.00265  0  0
Ar  -0.59153  5.8881302  14.8584499  -0.00398  -0.00204  -0.00265  0  0
Ar  4.5598102  -15.1030207  16.4788685  -0.0018  0.00117  -0.00116  0  0
Ar  -2.25425  -1.4699899  14.0441999  0.00109  0.00275  -0.00183  0  0
Ar  -7.8376603  7.3191705  13.3438206  -0.00112  -0.00042  -0.00097  0  0
Ar  -12.0061493  7.3048005  8.9516802  -0.00106  -0.00079  0.00062  0  0
Ar  -11.4370089  14.4522095  19.7966118  0.00179  -0.00171  0.00006  0  0
Ar  -5.3315206  -9.7256603  9.1715603  0.00316  0.00405  -0.00443  0  0
Ar  -3.0839701  5.5071502  12.5037403  -0.00111  0.00016  0.00117  0  0
Ar  -8.6976604  11.1544294  4.3544707  -0.00123  0.0015  -0.00183  0  0
Ar  -2.23733  -15.2543497  6.7721701  0.00296  -0.00089  0.00148  0  0
Ar  -8.6852608  8.0272608  16.9127407  -0.00017  0.0001  0.0005  0  0
Ar  -2.1381097  -5.8120704  19.7650299  0.00014  0.00025  -0.00092  0  0
Ar  -10.7981806  -3.72932  6.8664103  -0.00149  -0.00101  0.00093  0  0
Ar  -8.8411207  7.2206297  9.9126692  0.00131  -0.00193  -0.00176  0  0
Ar  -14.6640005  -2.8794801  0.54998  -0.00099  0.00022  -0.00035  0  0
Ar  -12.2448597  13.5490093  5.1058998  0.0007  -0.00275  -0.00113  0  0
Ar  -14.7975092  8.0546694  1.75125  -0.00001  0.00328  0.00205  0  0
Ar  0.8134601  2.4322402  16.4699707  0.00346  0.00263  0.00237  0  0
Ar  -14.7901201  15.2510004  6.9201303  0.00318  -0.00028  -0.00056  0  0
Ar  -11.5191298  9.8323202  7.0758204  0.00069  0.0013  -0.00086  0  0
Ar  -14.7974796  15.2786398  19.7946205  -0.00005  0.00161  -0.00045  0  0
Ar  -14.63099  3.3350701  16.9507294  0.00149  -0.00046  -0.00315  0  0
Ar  -4.91395  -15.2440691  2.84255  0.00131  -0.00093  -0.00113  0  0
Ar  -14.79772  8.6253414  13.8964596  -0.00019  0.00041  0.0022  0  0
Ar  -14.39746  -4.8910403  -4.9131703  0.00079  -0.00269  -0.0005  0  0
Ar  -14.4659004  5.09373  13.9520893  0.00494  0.00264  0.0008  0  0
Xe  -11.6014404  -0.07463  19.4950981  0.00046  0.001  -0.00081  0  0
Xe  -11.5474491  -14.8596401  15.5914402  -0.00156  -0.00078  0.00205  0  0
Xe  -11.0302496  -8.5742998  12.5559206  -0.00055  0.00204  0.0002  0  0
Xe  -8.3256006  -6.5969601  19.3658161  -0.00059  0.00102  -0.00109  0  0
Xe  -6.6428995  -12.6137609  15.1556301  0.0015  -0.00286  -0.00047  0  0
Xe  -11.8436298  -14.9972401  19.4910984  0.00105  -0.00044  0.00015  0  0
Xe  -14.4984398  -8.4666195  10.1657906  -0.00081  -0.00224  0.00013  0  0
Xe  -14.494729  -0.38918  10.6738701  -0.00017  -0.00059  0.00007  0  0
Xe  -8.6740093  4.4738998  16.1452312  0.00021  -0.00121  0.00024  0  0
Xe  -14.3737402  -12.2218904  8.4257803  0.00032  0.00076  0.00009  0  0
Xe  -11.5162497  7.8819599  19.4956093  -0.0001  0.00179  0.00045  0  0
Xe  -11.3735895  -6.3912201  9.02421  -0.00298  -0.00014  0.00045  0  0
Xe  -6.5498099  -12.0823002  19.2295113  0.00097  -0.00053  0.00015  0  0
Xe  -5.7465301  1.76801  15.9435091  -0.00026  0.00181  0.00093  0  0
Xe  -11.9797993  -10.0891495  16.2131195  0.00022  -0.00018  0.00117  0  0
Xe  -11.9200697  -10.9754791  3.75003  0.00017  -0.00242  -0.00107  0  0
Xe  -14.49998  -11.424469  12.9471893  0.00015  0.00025  -0.00046  0  0
Xe  -8.289609  2.1971397  19.3332806  0.00097  0.00041  -0.00093  0  0
Xe  -8.9113302  -9.5922403  9.691371  0.00155  -0.00057  -0.00133  0  0
Xe  -14.4971495  -2.37657  13.6905298  0.00044  -0.00274  -0.00209  0  0
Xe  -11.6713705  3.87995  19.446331  -0.00099  -0.00003  -0.00122  0  0
Xe  -14.4383402  -4.6420498  10.4683304  0.00072  0.00124  -0.00082  0  0
Xe  -9.9778891  -12.0311298  13.6306896  0.00178  0.0002  -0.00023  0  0
Xe  -8.3544197  -8.949789  16.2740192  -0.00067  -0.00138  0.00062  0  0
Xe  -14.47892  14.1047001  16.4115582  -0.0016  0.00273  0.00024  0  0
Xe  -11.2730198  -4.2671399  12.81497  0.00014  0.00105  -0.00116  0  0
Xe  -14.3524399  -7.0199699  13.7529402  -0.00037  0.00091  0.00119  0  0
Ne  -14.8168497  15.6366796  13.4944487  -0.00067  0.00294  0.00358  0  0
Ne  4.2764802  -12.4460592  20.0202599  0.00348  0.00301  -0.00054  0  0
Ne  -6.5785999  7.3704505  4.3388805  0.00223  -0.00626  0.00002  0  0
Xe  -3.5152602  -14.9150696  16.3582973  -0.0004  0.00036  -0.00172  0  0
Xe  -14.4953899  -4.2322197  16.6933002  0.00096  -0.00085  0.00021  0  0
Xe  -14.4993601  -0.30333  16.9333191  0.00065  0.00038  -0.00101  0  0
Xe  -11.41819  -3.81794  19.45644  -0.00075  -0.00052  0.00028  0  0
Xe  -5.0620799  -0.34586  19.452549  -0.00104  0.00063  0.00085  0  0
Xe  -11.2816401  -6.3550005  16.1216106  -0.00021  -0.00153  0.00084  0  0
Xe  -4.72018  -8.7771397  19.4101295  0.00011  -0.00203  -0.00232  0  0
Xe  -11.7182503  -14.9884691  11.8524494  0.00079  0.00172  -0.00189  0  0
Xe  -5.3025002  -6.4602399  16.187109  0.00133  -0.00091  0.00066  0  0
Xe  -14.33988  -2.50741  6.8617802  0.00045  -0.00093  -0.00123  0  0
Xe  -12.1822605  -7.7810097  19.4946709  -0.00074  0.00013  0  0  0
Xe  -5.0889196  -4.0012999  19.3479195  0.00001  -0.00088  -0.00127  0  0
Xe  -14.2367487  3.5006702  10.2398891  -0.00092  -0.00002  0.00304  0  0
Xe  -14.4242496  12.2709198  12.9140396  0.00097  -0.00186  0.00059  0  0
K  -4.5114703  11.6883307  13.1988707  -0.00056  -0.00101  0.00104  0  0
