180
#forces [144 108 72] --- created by Molecular Workbench, http://mw.concord.org
C  -2.37342  9.45038  7.87187  0.0019  0.00181  -0.00037  0
C  0.71131  7.05663  5.18923  0.00021  0.00328  -0.00256  0
C  -0.90555  12.38832  11.06548  -0.00437  0.00498  -0.00125  0
O  -1.0814  5.09047  2.45558  0.00116  0.00012  0.00299  -0.5
H  -0.65085  2.67008  0.11003  -0.00135  0.00929  -0.02388  0.5
C  -4.58106  -1.05359  -2.68155  0.0028  0.00546  0.00302  0
C  -3.28307  -2.25249  1.69456  0.00443  -0.00264  0.00088  0
C  -8.41399  -2.74038  -4.48927  -0.00332  0.00148  -0.00466  0
O  -0.2907  -0.37653  2.73928  0.00054  0.00384  -0.0008  -0.5
H  1.89799  -0.30159  4.93551  -0.01642  -0.01063  0.01317  0.5
C  -8.32262  3.77631  3.96743  -0.00066  -0.00285  0.00219  0
C  -4.34518  4.57842  6.39973  0.0033  0.01163  -0.00985  0
C  -12.31412  5.77996  5.22377  0.00241  0.00077  0.00417  0
O  -1.4095  2.68266  4.77282  -0.00236  -0.00153  -0.00359  -0.5
H  1.91948  2.22831  4.97562  0.00858  0.00025  -0.00728  0.5
C  -3.99785  0.42975  9.97044  -0.00267  0.00258  0.00145  0
C  -0.15047  -1.73016  8.11459  0.00008  0.0007  -0.00372  0
C  -5.7889  -0.83069  13.95207  0.00389  -0.00814  -0.00266  0
O  0.71177  -0.2248  4.84803  -0.00675  0.00052  -0.00143  -0.5
H  2.97852  -0.16096  2.65736  -0.01762  -0.01118  0.00919  0.5
C  -3.32407  3.96227  -4.86859  -0.00299  0.00324  0.00506  0
C  -3.29937  2.3422  -0.39001  -0.00534  -0.00206  -0.0043  0
C  -7.15955  4.66658  -7.20798  -0.00382  -0.00295  0.00434  0
O  0.20108  2.14158  0.93421  -0.00549  -0.00061  -0.00264  -0.5
H  2.09464  0.96753  3.63492  -0.00687  -0.0153  -0.01253  0.5
C  3.82127  3.58883  -4.69121  -0.00372  0.00341  0.00019  0
C  4.28402  3.91097  0.06901  0.00317  -0.00658  0.00108  0
C  6.5725  5.74189  -7.64655  0.00547  0.00049  0.00098  0
O  1.63323  1.80776  1.85802  -0.00246  -0.00219  0.00315  -0.5
H  0.50734  0.94572  4.85324  -0.004  -0.02079  -0.02333  0.5
C  -5.82327  4.93262  8.58358  0.00848  -0.00327  0.0014  0
C  -5.77931  2.56121  4.52653  -0.00122  -0.00193  -0.00531  0
C  -9.75413  5.75627  10.83766  -0.0021  -0.00102  -0.00238  0
O  -2.19455  2.03885  3.28786  -0.0049  0.00578  0.00426  -0.5
H  -0.42955  1.11644  0.6872  -0.00214  0.01966  0.00875  0.5
C  -4.82277  8.26901  6.71307  -0.00524  -0.00547  -0.00094  0
C  -1.91828  7.2203  3.04568  -0.00318  -0.00548  0.00187  0
C  -7.88485  11.52918  6.24147  -0.00559  0.00024  0.00438  0
O  -0.00259  4.05476  3.76  0.00197  0.00066  0.00433  -0.5
H  2.58083  2.27789  2.64445  0.00756  -0.00144  -0.01913  0.5
C  -7.12883  0.71419  5.48663  0.00033  0.00169  0.00085  0
C  -4.85358  4.55476  4.09245  0.00225  -0.00402  -0.0017  0
C  -11.52894  0.87708  7.00734  -0.00073  0.00506  -0.00435  0
O  -1.43863  3.62981  2.78447  -0.00087  0.00035  0.0013  -0.5
H  1.4375  4.93306  1.7174  0.01371  -0.02175  0.0052  0.5
C  7.09595  8.19228  2.79345  0.00265  0.00472  -0.00156  0
C  5.35605  3.874  4.23905  -0.00177  0.00542  -0.00399  0
C  9.71791  10.8414  5.47512  0.00804  -0.00382  0.00056  0
O  3.13105  2.3534  1.50704  0.00336  0.00071  0.00019  -0.5
H  1.19595  -0.16935  0.77449  -0.0021  -0.03175  -0.01075  0.5
C  2.77714  4.15248  8.997  0.00396  -0.00091  0.00385  0
C  3.96254  2.07643  4.95122  -0.00224  -0.0012  -0.00544  0
C  5.90962  5.32263  12.06028  0.00288  0.00208  0.00052  0
O  0.78198  0.88499  3.03285  0.001  -0.00606  -0.0031  -0.5
H  -0.27239  -0.16415  0.00794  0.0066  -0.01447  -0.01228  0.5
C  6.7865  -1.86021  -2.11061  -0.00443  -0.00017  0.00217  0
C  3.44361  -0.9758  1.25793  0.00011  0.00399  -0.00261  0
C  10.88032  -3.6995  -0.98238  -0.00215  0.00319  -0.00135  0
O  0.46629  0.88462  -0.22119  -0.00191  0.00218  0.00419  -0.5
H  -2.2057  2.52576  0.57706  -0.00299  -0.00038  0.00164  0.5
C  3.9931  -1.99049  -3.94645  0.00016  -0.00156  -0.00354  0
C  -0.08292  -1.44902  -1.83346  -0.00057  -0.0044  -0.00185  0
C  4.40314  -4.5922  -7.53023  -0.0006  -0.00423  -0.0049  0
O  0.36222  0.5108  1.42194  -0.00088  0.00207  0.00053  -0.5
H  -1.32727  1.61918  4.10114  -0.00719  -0.00123  0.00137  0.5
C  2.22236  6.82866  -4.88057  -0.00575  0.00453  0.00059  0
C  -0.62836  4.00254  -2.24011  -0.0028  0.00567  0.00178  0
C  1.7549  7.22082  -9.31243  0.00366  0.0068  0.00779  0
O  0.43009  4.11426  1.40896  -0.00179  0.00297  0.00111  -0.5
H  -0.26822  2.91047  4.3451  -0.01545  -0.00112  0.01507  0.5
C  7.31492  2.98  -3.74014  -0.0036  -0.00476  -0.00382  0
C  2.81376  4.26013  -2.82129  0.00151  -0.00301  0.0038  0
C  9.36692  3.9103  -7.73496  -0.00404  0.00234  0.00143  0
O  1.65639  2.76452  0.46443  -0.00693  -0.00188  -0.00186  -0.5
H  -0.99954  2.5255  2.53429  -0.00387  0.00705  -0.01086  0.5
C  -5.59995  0.19609  7.32545  0.00316  -0.00144  0.00033  0
C  -2.71706  -1.55969  3.83236  0.00158  -0.00097  -0.00277  0
C  -7.78666  -2.64939  10.2246  -0.00929  -0.00173  -0.00269  0
O  -0.97952  1.38342  1.96119  0.00239  0.00203  0.00275  -0.5
H  0.80807  2.06626  -0.60996  0.00615  -0.00207  0.01615  0.5
C  -3.72906  -4.61775  -1.25174  -0.00312  0.00163  -0.00123  0
C  -5.54308  -0.61696  0.44109  -0.00436  0.00445  0.00154  0
C  -6.46597  -7.83812  -3.10531  -0.00216  0.00449  -0.00396  0
O  -2.79735  1.79347  1.35359  0.00396  -0.00269  0.00259  -0.5
H  -2.24111  4.52474  2.83663  -0.00212  0.00516  -0.0079  0.5
C  0.84987  1.62507  -7.56475  0.00248  0.00374  -0.00493  0
C  -0.7855  0.48174  -3.14242  0.00277  0.00355  0.00135  0
C  -0.21416  -0.89834  -11.20243  -0.00232  0.007  -0.00194  0
O  0.24833  3.11802  -0.60961  -0.00141  -0.00141  0.00229  -0.5
H  -0.17897  4.03578  2.52196  0.01535  0.0052  0.00043  0.5
C  1.72869  9.33686  0.07729  0.00279  0.0005  0.00096  0
C  -0.64835  5.13504  -0.31966  0.00132  0.00758  0.00305  0
C  0.96095  12.8638  -2.88585  0.00652  -0.00075  -0.00084  0
O  0.31874  2.86392  2.60353  0.00546  0.00618  0.0028  -0.5
H  -0.06157  -0.38477  3.91672  -0.00549  0.01256  0.00575  0.5
C  -6.74695  -1.2308  -3.71866  0.00443  0.0082  -0.00912  0
C  -5.25965  1.72992  -0.1757  -0.00256  0.00261  0.00332  0
C  -11.13779  -2.16071  -4.27046  -0.00223  0.00265  -0.00236  0
O  -1.41393  1.68448  0.09768  -0.00346  0.00558  0.00139  -0.5
H  1.09513  3.03438  1.5736  0.01277  -0.00309  0.0082  0.5
C  0.15063  8.01637  6.91309  -0.00483  0.00421  -0.00468  0
C  -2.35533  4.18602  5.70285  0.0044  0.00485  -0.00575  0
C  -1.49682  11.38753  9.72662  -0.00442  -0.00428  0.00172  0
O  -0.40195  1.96191  3.49373  -0.00088  0.00577  0.00492  -0.5
H  -0.66562  -0.65778  1.63696  0.00083  0.00088  0.01214  0.5
C  -0.94445  3.89822  -6.26533  0.00026  -0.00404  0.0014  0
C  -2.09925  5.95352  -2.18678  -0.00109  0.00425  -0.00522  0
C  -1.35881  6.15719  -10.28967  -0  -0.00283  -0.0001  0
O  -1.5112  3.53422  0.71035  -0.00476  0.00392  -0.0024  -0.5
H  -2.06601  3.12702  3.7769  -0.00083  -0.00038  -0.01284  0.5
C  1.40845  11.80605  0.83525  0.0047  -0.00045  0.00309  0
C  0.0211  8.5859  3.95931  -0.00599  0.00161  -0.00246  0
C  1.11896  16.35958  1.8142  0.00263  -0.00148  -0.00075  0
O  0.81085  5.08281  2.67022  -0.00181  0.00132  0.00179  -0.5
H  0.83424  2.0244  3.52655  -0.00546  0.00385  -0.00608  0.5
C  3.50086  11.31319  -0.19954  0.0016  0.00456  0.00312  0
C  0.91648  7.94316  1.81516  0.00316  0.00188  -0.00109  0
C  3.04536  15.71555  0.92934  0.00523  0.00271  -0.00624  0
O  2.13435  4.53176  0.82308  0.00205  0.00096  -0.00104  -0.5
H  1.16314  1.32312  0.72833  -0.00796  0.00271  0.00645  0.5
C  -9.28901  0.38521  2.54252  0.00144  0.00409  0.00027  0
C  -4.49941  0.17028  2.58206  -0.00871  -0.00053  0.00036  0
C  -11.97282  -3.33106  2.09984  -0.00124  0.00345  0.00056  0
O  -3.01015  3.60163  3.01772  0.0033  0.0029  -0.00019  -0.5
H  -0.13211  5.18221  3.45642  -0.00655  -0.00636  -0.00062  0.5
C  1.82695  -4.86354  -3.22131  -0.00439  0.00097  0.0036  0
C  2.15645  -0.69691  -0.93109  -0.00147  -0.00144  -0.00094  0
C  5.36722  -6.607  -5.6083  -0.00978  0.00104  -0.00529  0
O  -1.19428  0.06129  0.75801  -0.00126  -0.00185  -0.0093  -0.5
H  -2.88497  2.45852  2.42306  0.00199  -0.00387  -0.00531  0.5
C  0.38221  7.34104  9.52586  0.00171  0.00004  -0.00043  0
C  -0.70084  2.87643  8.11433  0.00762  0.00118  0.00367  0
C  -0.8696  9.07155  13.62204  0.00039  0.00193  0.00133  0
O  0.69101  2.16408  4.72581  -0.00129  -0.00561  0.00362  -0.5
H  0.88475  -0.19731  2.35103  -0.01371  0.00685  -0.01256  0.5
C  4.79923  -1.53395  10.71  -0.0043  -0.00271  -0.00458  0
C  1.02125  0.33447  8.52443  -0.00143  0.00518  -0.00743  0
C  4.55671  -3.02444  14.95038  -0.00844  0.00099  -0.00453  0
O  1.76988  0.99705  4.91344  -0.00092  0.00209  0.00311  -0.5
H  0.3827  1.59482  2.05913  0.00385  0.00517  -0.0104  0.5
C  1.49789  -0.56123  11.09663  0.00036  0.0039  -0.00554  0
C  2.45776  0.64133  6.59931  0.00361  -0.00197  -0.00871  0
C  4.76776  -1.28305  14.20465  -0.00105  -0.0046  -0.00034  0
O  -0.72873  0.61862  4.34417  0.00528  0.00697  0.00011  -0.5
H  -1.82671  0.97426  1.20289  0.01751  0.01378  -0.01807  0.5
C  -5.50327  -5.05388  -0.58962  -0.00688  0.00361  -0.00424  0
C  -1.67514  -2.56028  -2.16532  0.00001  0.0014  -0.00121  0
C  -8.42506  -6.81835  -3.48107  0.0016  0.00032  -0.00081  0
O  0.23306  -1.00044  0.82884  -0.00171  0.00858  0  -0.5
H  2.70505  1.04539  1.60979  -0.00744  0.01514  0.01084  0.5
C  0.62676  3.45756  10.62226  -0.0046  0.00363  -0.00295  0
C  3.76799  3.39745  7.01232  0.00084  -0.00029  -0.00086  0
C  1.7749  5.24256  14.74928  0.00048  -0.00317  -0.00236  0
O  2.10078  2.23902  3.75895  -0.00365  0.00105  -0.00088  -0.5
H  2.69157  1.99915  0.44144  0.00582  -0.00617  -0.00105  0.5
C  7.94955  0.80849  4.89506  0.0052  -0.00796  0.00065  0
C  4.59519  0.76311  1.4968  0.00067  0.00056  0.0019  0
C  11.17111  -2.36641  5.04634  -0.0013  -0.0002  -0.00024  0
O  2.00435  3.48227  2.30444  0.00011  0.00022  0.0003  -0.5
H  -0.92786  4.50048  1.35231  0.01458  0.00836  -0.01535  0.5
C  7.39135  -4.55116  2.65176  -0.00836  0.00121  -0.00138  0
C  3.03777  -2.73271  3.29997  0.00213  -0.00487  -0.00267  0
C  8.15256  -9.09935  2.82584  -0.00287  -0.00206  -0.00096  0
O  3.05329  1.0766  2.71265  -0.0009  -0.0043  -0.00593  -0.5
H  1.12092  3.84176  3.09339  -0.00913  0.0055  0.01213  0.5
C  5.49352  -5.42598  0.09211  -0.00295  0.0068  -0.01263  0
C  1.46965  -2.85024  0.52396  -0.00284  0.00348  -0.00086  0
C  5.64563  -10.03097  0.34828  -0.00174  -0.00192  -0.00588  0
O  2.27937  0.88365  0.39043  -0.00068  0.00641  -0.00217  -0.5
H  0.85622  3.86842  0.20229  -0.00045  0.01764  0.01369  0.5
C  0.35191  -6.44166  3.81517  -0.00004  0.00172  0.00636  0
C  -0.77979  -2.51606  1.40832  -0.00133  0.00466  0.00405  0
C  -2.49553  -10.0106  4.24608  -0.00672  0.00876  -0.00005  0
O  1.96197  0.06891  1.77262  -0.00181  -0.00184  0.00617  -0.5
H  2.62827  3.41999  1.20983  0.00523  -0.0138  -0.01863  0.5
C  9.09702  -2.06729  5.81948  -0.00933  0.00367  0.0028  0
C  4.41955  -2.64608  6.23782  -0.00059  -0.00295  -0.00104  0
C  12.12477  -4.78762  7.95092  -0.00305  0.00055  0.00004  0
O  2.58308  -0.31641  3.89017  0.00189  -0.00626  -0.00222  -0.5
H  -0.4651  0.78412  3.04467  -0.00674  0.00241  -0.00804  0.5
bond 0 2 4.5 4.59185
bond 0 1 4.5 4.77604
bond 3 1 4.5 3.79014
bond 3 4 4.5 3.23501
bond 5 7 4.5 4.59185
bond 5 6 4.5 4.77604
bond 8 6 4.5 3.79014
bond 8 9 4.5 3.23501
bond 10 12 4.5 4.59185
bond 10 11 4.5 4.77604
bond 13 11 4.5 3.79014
bond 13 14 4.5 3.23501
bond 15 17 4.5 4.59185
bond 15 16 4.5 4.77604
bond 18 16 4.5 3.79014
bond 18 19 4.5 3.23501
bond 20 22 4.5 4.59185
bond 20 21 4.5 4.77604
bond 23 21 4.5 3.79014
bond 23 24 4.5 3.23501
bond 25 27 4.5 4.59185
bond 25 26 4.5 4.77604
bond 28 26 4.5 3.79014
bond 28 29 4.5 3.23501
bond 30 32 4.5 4.59185
bond 30 31 4.5 4.77604
bond 33 31 4.5 3.79014
bond 33 34 4.5 3.23501
bond 35 37 4.5 4.59185
bond 35 36 4.5 4.77604
bond 38 36 4.5 3.79014
bond 38 39 4.5 3.23501
bond 40 42 4.5 4.59185
bond 40 41 4.5 4.77604
bond 43 41 4.5 3.79014
bond 43 44 4.5 3.23501
bond 45 47 4.5 4.59185
bond 45 46 4.5 4.77604
bond 48 46 4.5 3.79014
bond 48 49 4.5 3.23501
bond 50 52 4.5 4.59185
bond 50 51 4.5 4.77604
bond 53 51 4.5 3.79014
bond 53 54 4.5 3.23501
bond 55 57 4.5 4.59185
bond 55 56 4.5 4.77604
bond 58 56 4.5 3.79014
bond 58 59 4.5 3.23501
bond 60 62 4.5 4.59185
bond 60 61 4.5 4.77604
bond 63 61 4.5 3.79014
bond 63 64 4.5 3.23501
bond 65 67 4.5 4.59185
bond 65 66 4.5 4.77604
bond 68 66 4.5 3.79014
bond 68 69 4.5 3.23501
bond 70 72 4.5 4.59185
bond 70 71 4.5 4.77604
bond 73 71 4.5 3.79014
bond 73 74 4.5 3.23501
bond 75 77 4.5 4.59185
bond 75 76 4.5 4.77604
bond 78 76 4.5 3.79014
bond 78 79 4.5 3.23501
bond 80 82 4.5 4.59185
bond 80 81 4.5 4.77604
bond 83 81 4.5 3.79014
bond 83 84 4.5 3.23501
bond 85 87 4.5 4.59185
bond 85 86 4.5 4.77604
bond 88 86 4.5 3.79014
bond 88 89 4.5 3.23501
bond 90 92 4.5 4.59185
bond 90 91 4.5 4.77604
bond 93 91 4.5 3.79014
bond 93 94 4.5 3.23501
bond 95 97 4.5 4.59185
bond 95 96 4.5 4.77604
bond 98 96 4.5 3.79014
bond 98 99 4.5 3.23501
bond 100 102 4.5 4.59185
bond 100 101 4.5 4.77604
bond 103 101 4.5 3.79014
bond 103 104 4.5 3.23501
bond 105 107 4.5 4.59185
bond 105 106 4.5 4.77604
bond 108 106 4.5 3.79014
bond 108 109 4.5 3.23501
bond 110 112 4.5 4.59185
bond 110 111 4.5 4.77604
bond 113 111 4.5 3.79014
bond 113 114 4.5 3.23501
bond 115 117 4.5 4.59185
bond 115 116 4.5 4.77604
bond 118 116 4.5 3.79014
bond 118 119 4.5 3.23501
bond 120 122 4.5 4.59185
bond 120 121 4.5 4.77604
bond 123 121 4.5 3.79014
bond 123 124 4.5 3.23501
bond 125 127 4.5 4.59185
bond 125 126 4.5 4.77604
bond 128 126 4.5 3.79014
bond 128 129 4.5 3.23501
bond 130 132 4.5 4.59185
bond 130 131 4.5 4.77604
bond 133 131 4.5 3.79014
bond 133 134 4.5 3.23501
bond 135 137 4.5 4.59185
bond 135 136 4.5 4.77604
bond 138 136 4.5 3.79014
bond 138 139 4.5 3.23501
bond 140 142 4.5 4.59185
bond 140 141 4.5 4.77604
bond 143 141 4.5 3.79014
bond 143 144 4.5 3.23501
bond 145 147 4.5 4.59185
bond 145 146 4.5 4.77604
bond 148 146 4.5 3.79014
bond 148 149 4.5 3.23501
bond 150 152 4.5 4.59185
bond 150 151 4.5 4.77604
bond 153 151 4.5 3.79014
bond 153 154 4.5 3.23501
bond 155 157 4.5 4.59185
bond 155 156 4.5 4.77604
bond 158 156 4.5 3.79014
bond 158 159 4.5 3.23501
bond 160 162 4.5 4.59185
bond 160 161 4.5 4.77604
bond 163 161 4.5 3.79014
bond 163 164 4.5 3.23501
bond 165 167 4.5 4.59185
bond 165 166 4.5 4.77604
bond 168 166 4.5 3.79014
bond 168 169 4.5 3.23501
bond 170 172 4.5 4.59185
bond 170 171 4.5 4.77604
bond 173 171 4.5 3.79014
bond 173 174 4.5 3.23501
bond 175 177 4.5 4.59185
bond 175 176 4.5 4.77604
bond 178 176 4.5 3.79014
bond 178 179 4.5 3.23501
angle 2 0 1 50.0 2.13367
angle 0 1 3 50.0 1.92222
angle 1 3 4 50.0 2.49491
angle 7 5 6 50.0 2.13367
angle 5 6 8 50.0 1.92222
angle 6 8 9 50.0 2.49491
angle 12 10 11 50.0 2.13367
angle 10 11 13 50.0 1.92222
angle 11 13 14 50.0 2.49491
angle 17 15 16 50.0 2.13367
angle 15 16 18 50.0 1.92222
angle 16 18 19 50.0 2.49491
angle 22 20 21 50.0 2.13367
angle 20 21 23 50.0 1.92222
angle 21 23 24 50.0 2.49491
angle 27 25 26 50.0 2.13367
angle 25 26 28 50.0 1.92222
angle 26 28 29 50.0 2.49491
angle 32 30 31 50.0 2.13367
angle 30 31 33 50.0 1.92222
angle 31 33 34 50.0 2.49491
angle 37 35 36 50.0 2.13367
angle 35 36 38 50.0 1.92222
angle 36 38 39 50.0 2.49491
angle 42 40 41 50.0 2.13367
angle 40 41 43 50.0 1.92222
angle 41 43 44 50.0 2.49491
angle 47 45 46 50.0 2.13367
angle 45 46 48 50.0 1.92222
angle 46 48 49 50.0 2.49491
angle 52 50 51 50.0 2.13367
angle 50 51 53 50.0 1.92222
angle 51 53 54 50.0 2.49491
angle 57 55 56 50.0 2.13367
angle 55 56 58 50.0 1.92222
angle 56 58 59 50.0 2.49491
angle 62 60 61 50.0 2.13367
angle 60 61 63 50.0 1.92222
angle 61 63 64 50.0 2.49491
angle 67 65 66 50.0 2.13367
angle 65 66 68 50.0 1.92222
angle 66 68 69 50.0 2.49491
angle 72 70 71 50.0 2.13367
angle 70 71 73 50.0 1.92222
angle 71 73 74 50.0 2.49491
angle 77 75 76 50.0 2.13367
angle 75 76 78 50.0 1.92222
angle 76 78 79 50.0 2.49491
angle 82 80 81 50.0 2.13367
angle 80 81 83 50.0 1.92222
angle 81 83 84 50.0 2.49491
angle 87 85 86 50.0 2.13367
angle 85 86 88 50.0 1.92222
angle 86 88 89 50.0 2.49491
angle 92 90 91 50.0 2.13367
angle 90 91 93 50.0 1.92222
angle 91 93 94 50.0 2.49491
angle 97 95 96 50.0 2.13367
angle 95 96 98 50.0 1.92222
angle 96 98 99 50.0 2.49491
angle 102 100 101 50.0 2.13367
angle 100 101 103 50.0 1.92222
angle 101 103 104 50.0 2.49491
angle 107 105 106 50.0 2.13367
angle 105 106 108 50.0 1.92222
angle 106 108 109 50.0 2.49491
angle 112 110 111 50.0 2.13367
angle 110 111 113 50.0 1.92222
angle 111 113 114 50.0 2.49491
angle 117 115 116 50.0 2.13367
angle 115 116 118 50.0 1.92222
angle 116 118 119 50.0 2.49491
angle 122 120 121 50.0 2.13367
angle 120 121 123 50.0 1.92222
angle 121 123 124 50.0 2.49491
angle 127 125 126 50.0 2.13367
angle 125 126 128 50.0 1.92222
angle 126 128 129 50.0 2.49491
angle 132 130 131 50.0 2.13367
angle 130 131 133 50.0 1.92222
angle 131 133 134 50.0 2.49491
angle 137 135 136 50.0 2.13367
angle 135 136 138 50.0 1.92222
angle 136 138 139 50.0 2.49491
angle 142 140 141 50.0 2.13367
angle 140 141 143 50.0 1.92222
angle 141 143 144 50.0 2.49491
angle 147 145 146 50.0 2.13367
angle 145 146 148 50.0 1.92222
angle 146 148 149 50.0 2.49491
angle 152 150 151 50.0 2.13367
angle 150 151 153 50.0 1.92222
angle 151 153 154 50.0 2.49491
angle 157 155 156 50.0 2.13367
angle 155 156 158 50.0 1.92222
angle 156 158 159 50.0 2.49491
angle 162 160 161 50.0 2.13367
angle 160 161 163 50.0 1.92222
angle 161 163 164 50.0 2.49491
angle 167 165 166 50.0 2.13367
angle 165 166 168 50.0 1.92222
angle 166 168 169 50.0 2.49491
angle 172 170 171 50.0 2.13367
angle 170 171 173 50.0 1.92222
angle 171 173 174 50.0 2.49491
angle 177 175 176 50.0 2.13367
angle 175 176 178 50.0 1.92222
angle 176 178 179 50.0 2.49491
torsion 2 0 1 3 100.0 2.93015
torsion 0 1 3 4 100.0 2.5689
torsion 7 5 6 8 100.0 2.93015
torsion 5 6 8 9 100.0 2.5689
torsion 12 10 11 13 100.0 2.93015
torsion 10 11 13 14 100.0 2.5689
torsion 17 15 16 18 100.0 2.93015
torsion 15 16 18 19 100.0 2.5689
torsion 22 20 21 23 100.0 2.93015
torsion 20 21 23 24 100.0 2.5689
torsion 27 25 26 28 100.0 2.93015
torsion 25 26 28 29 100.0 2.5689
torsion 32 30 31 33 100.0 2.93015
torsion 30 31 33 34 100.0 2.5689
torsion 37 35 36 38 100.0 2.93015
torsion 35 36 38 39 100.0 2.5689
torsion 42 40 41 43 100.0 2.93015
torsion 40 41 43 44 100.0 2.5689
torsion 47 45 46 48 100.0 2.93015
torsion 45 46 48 49 100.0 2.5689
torsion 52 50 51 53 100.0 2.93015
torsion 50 51 53 54 100.0 2.5689
torsion 57 55 56 58 100.0 2.93015
torsion 55 56 58 59 100.0 2.5689
torsion 62 60 61 63 100.0 2.93015
torsion 60 61 63 64 100.0 2.5689
torsion 67 65 66 68 100.0 2.93015
torsion 65 66 68 69 100.0 2.5689
torsion 72 70 71 73 100.0 2.93015
torsion 70 71 73 74 100.0 2.5689
torsion 77 75 76 78 100.0 2.93015
torsion 75 76 78 79 100.0 2.5689
torsion 82 80 81 83 100.0 2.93015
torsion 80 81 83 84 100.0 2.5689
torsion 87 85 86 88 100.0 2.93015
torsion 85 86 88 89 100.0 2.5689
torsion 92 90 91 93 100.0 2.93015
torsion 90 91 93 94 100.0 2.5689
torsion 97 95 96 98 100.0 2.93015
torsion 95 96 98 99 100.0 2.5689
torsion 102 100 101 103 100.0 2.93015
torsion 100 101 103 104 100.0 2.5689
torsion 107 105 106 108 100.0 2.93015
torsion 105 106 108 109 100.0 2.5689
torsion 112 110 111 113 100.0 2.93015
torsion 110 111 113 114 100.0 2.5689
torsion 117 115 116 118 100.0 2.93015
torsion 115 116 118 119 100.0 2.5689
torsion 122 120 121 123 100.0 2.93015
torsion 120 121 123 124 100.0 2.5689
torsion 127 125 126 128 100.0 2.93015
torsion 125 126 128 129 100.0 2.5689
torsion 132 130 131 133 100.0 2.93015
torsion 130 131 133 134 100.0 2.5689
torsion 137 135 136 138 100.0 2.93015
torsion 135 136 138 139 100.0 2.5689
torsion 142 140 141 143 100.0 2.93015
torsion 140 141 143 144 100.0 2.5689
torsion 147 145 146 148 100.0 2.93015
torsion 145 146 148 149 100.0 2.5689
torsion 152 150 151 153 100.0 2.93015
torsion 150 151 153 154 100.0 2.5689
torsion 157 155 156 158 100.0 2.93015
torsion 155 156 158 159 100.0 2.5689
torsion 162 160 161 163 100.0 2.93015
torsion 160 161 163 164 100.0 2.5689
torsion 167 165 166 168 100.0 2.93015
torsion 165 166 168 169 100.0 2.5689
torsion 172 170 171 173 100.0 2.93015
torsion 170 171 173 174 100.0 2.5689
torsion 177 175 176 178 100.0 2.93015
torsion 175 176 178 179 100.0 2.5689
