216
#forces [0 0 0] --- created by Molecular Workbench, http://mw.concord.org
Na  -8.04669  -6.22596  -7.36488  -0  0  -0  0.00044
Na  -2.92577  -3.94214  -7.91727  -0  -0  -0  0.00055
Na  -5.92849  -4.82493  -5.64845  -0  -0  -0  0.00246
Na  -4.41037  -7.35486  -4.28142  -0  0  -0  -0.00011
Cl  -2.90142  -4.48452  -4.69365  -0  0  -0  0.00041
Cl  -7.92741  -6.62527  -3.81352  -0  -0  -0  -0.00109
Cl  -4.43  -6.89381  -7.57387  -0  -0  -0  0.00317
Cl  -5.96026  -4.14534  -9.05178  0  0  0  0.00259
Na  -7.06615  -6.86886  -0.44294  -0  0  -0  -0.00543
Na  -2.40536  -4.59304  -1.51325  0  0  0  -0.00004
Na  -4.98662  -4.72182  0.62563  -0  -0  -0  0.00243
Na  -3.66987  -7.10014  2.22661  0  0  0  -0.00545
Cl  -1.92026  -4.38588  1.64685  -0  0  -0  0.00413
Cl  -7.74996  -5.19862  2.39216  0  -0  0  -0.00058
Cl  -3.86242  -7.4584  -1.01238  -0  -0  -0  0.00267
Cl  -5.47878  -4.82068  -2.47937  -0  0  -0  0.00191
Na  -6.79392  -6.30039  5.4366  -0  -0  0  0.00994
Na  -1.83546  -4.10816  4.88111  0  -0  -0  0.00471
Na  -5.00231  -4.18211  6.96562  -0  0  0  0.00189
Na  -3.69245  -6.58599  8.71553  -0  0  0  -0.0041
Cl  -2.06554  -3.8337  8.08139  -0  0  0  -0.00016
Cl  -7.05631  -5.76573  8.81946  -0  -0  0  0.00158
Cl  -3.47568  -6.89349  5.49054  -0  0  0  -0.00211
Cl  -4.78175  -4.34155  3.77042  -0  -0  0  -0.00222
Na  -8.27395  -2.71742  -7.29576  -0  -0  -0  0.00608
Na  -3.18811  -0.15125  -8.3391  -0  0  -0  -0.00632
Na  -7.32719  0.26375  -5.96733  -0  -0  -0  0.00007
Na  -4.5281  -1.97634  -3.46119  -0  0  -0  0.00331
Cl  -3.99671  0.7067  -5.04332  -0  0  -0  0.00082
Cl  -7.67196  -2.54279  -4.15891  -0  -0  -0  0.00066
Cl  -5.1232  -1.97536  -6.57453  -0  -0  -0  0.00254
Cl  -6.52103  -0.51978  -9.19378  -0  -0  -0  0.00003
Na  -7.01116  -2.32326  -1.0729  0  0  -0  0.00542
Na  -3.3572  0.7934  -1.97011  -0  -0  -0  0.00096
Na  -5.81328  0.57914  0.32164  -0  -0  -0  0.00168
Na  -3.26684  -1.75356  2.6674  0  0  0  0.00108
Cl  -2.73867  0.97008  1.14425  -0  -0  -0  -0.00267
Cl  -6.47381  -2.09387  2.00676  -0  -0  -0  -0.0002
Cl  -3.89715  -1.93482  -0.38488  0  -0  0  0.00244
Cl  -6.53449  0.4881  -2.81632  -0  0  -0  0.00073
Na  -6.83609  -2.13572  5.17877  -0  0  0  0.00377
Na  -2.07339  0.79777  4.29139  0  -0  0  -0.00229
Na  -5.87389  0.68698  6.75552  -0  -0  0  0.00405
Na  -4.20942  -1.43517  8.9019  -0  -0  0  -0.00367
Cl  -2.6927  1.1297  7.47365  0  -0  0  0.00076
Cl  -7.29944  -2.18302  8.37383  -0  -0  0  -0.00021
Cl  -3.70978  -1.57153  5.74646  0  -0  0  0.0018
Cl  -5.26332  0.55592  3.54631  -0  -0  -0  -0.00821
Na  -8.29113  2.30938  -8.62474  -0  -0  -0  -0.00224
Na  -3.81763  4.60097  -9.11221  -0  0  -0  -0.00448
Na  -6.66439  5.07815  -7.06544  -0  0  -0  0.00593
Na  -5.7902  3.33051  -4.47932  -0  0  -0  -0.00251
Cl  -3.55847  5.5823  -6.01647  -0  -0  -0  0.00347
Cl  -8.89059  3.06571  -5.49454  -0  0  -0  -0.0094
Cl  -5.30167  2.22585  -7.55057  -0  0  -0  0.0066
Cl  -4.36692  1.74193  -10.75089  -0  0  -0  0.00183
Na  -8.28246  3.17547  -2.28209  -0  0  -0  0.0003
Na  -4.76891  6.02451  -2.98316  -0  -0  -0  -0.00179
Na  -7.23127  5.82804  -0.77253  -0  0  -0  0.00014
Na  -4.68799  3.3953  1.92638  -0  -0  -0  -0.00039
Cl  -4.15642  6.20438  0.26938  -0  -0  -0  0.00154
Cl  -7.82541  3.03424  0.97321  -0  -0  -0  0.00143
Cl  -5.19563  3.31481  -1.274  0  0  0  -0.00518
Cl  -7.81207  5.95399  -4.05143  -0  0  -0  -0.00784
Na  -7.16035  3.04653  4.17948  -0  0  -0  -0.00075
Na  -3.56602  6.04059  3.49814  -0  -0  -0  0.00405
Na  -6.1061  5.58724  5.82395  0  0  -0  0.00177
Na  -4.86191  3.54682  8.19231  0  0  0  0.0021
Cl  -2.96551  5.99945  6.74805  0  -0  0  0.00535
Cl  -8.00472  3.17713  7.32802  0  0  0  0.00229
Cl  -4.02669  3.20303  5.10774  0  -0  0  0.00091
Cl  -6.72093  5.89943  2.54657  -0  0  -0  0.00263
Na  -1.33913  -6.70952  -6.41732  -0  0  -0  -0.00115
Na  3.23645  -3.63248  -6.12053  -0  0  -0  -0.00305
Na  0.14716  -4.328  -3.79939  -0  -0  -0  -0.0055
Na  1.87829  -6.78729  -2.15351  -0  0  -0  -0.00378
Cl  3.1922  -3.90471  -2.87933  0  0  -0  -0.00145
Cl  -1.22542  -7.18114  -3.17312  -0  -0  -0  -0.00317
Cl  1.85006  -6.53004  -5.40472  -0  -0  -0  0.00444
Cl  0.16304  -3.87217  -7.07331  -0  0  -0  0.00502
Na  -0.78745  -7.0206  0.12213  -0  0  -0  0.00075
Na  3.67107  -4.11644  0.31854  -0  -0  -0  -0.00357
Na  1.18296  -4.3668  2.4709  0  -0  0  0.00099
Na  2.609  -6.63665  4.24882  0  0  0  -0.00103
Cl  4.17064  -3.91234  3.47828  0  0  -0  -0.00374
Cl  -0.58668  -6.89931  3.47097  0  0  0  -0.00119
Cl  2.38777  -7.01277  1.02924  -0  -0  0  0.00162
Cl  0.63381  -4.19297  -0.64158  -0  0  -0  -0.00501
Na  -0.48615  -6.39174  6.72407  0  0  0  0.00108
Na  4.19591  -3.47972  6.71877  0  0  0  0.00179
Na  1.01041  -3.72926  8.83822  -0  0  0  -0.00239
Na  2.67189  -6.04285  10.65544  -0  0  0  -0.00819
Cl  3.90663  -3.11978  9.93724  0  0  0  0.00187
Cl  -0.57375  -6.35013  9.98037  -0  0  0  0.00302
Cl  2.71619  -6.30814  7.45464  0  0  0  0.00509
Cl  1.24037  -3.87867  5.63155  0  0  0  -0.00196
Na  -1.97609  -1.67261  -5.84299  -0  0  -0  -0.00499
Na  2.95311  0.64084  -6.59253  -0  0  -0  0.00005
Na  -0.88473  0.96145  -4.36245  -0  -0  -0  0.0027
Na  1.59694  -1.35836  -1.78327  0  0  0  -0.00016
Cl  2.21454  1.2876  -3.45792  -0  0  -0  0.00005
Cl  -1.43533  -1.75153  -2.69305  0  -0  -0  0.00014
Cl  1.1191  -1.49602  -4.94064  -0  -0  -0  0.0057
Cl  -0.06649  0.26031  -7.60884  -0  0  -0  -0.00336
Na  -0.84208  -1.54816  0.43017  0  0  0  0.00643
Na  2.80531  1.2512  -0.30116  0  -0  -0  -0.00214
Na  0.36967  1.0867  1.99197  -0  -0  0  0.00407
Na  2.78752  -1.33054  4.48351  0  -0  0  0.00099
Cl  3.46664  1.30185  2.83922  0  -0  0  -0.00294
Cl  -0.23312  -1.70037  3.52487  0  -0  0  0.00237
Cl  2.22129  -1.49714  1.32261  0  -0  0  -0.00147
Cl  -0.2924  1.18137  -1.19969  -0  0  -0  -0.00626
Na  -0.66933  -1.31905  6.6182  0  -0  0  -0.00539
Na  4.03567  1.21481  6.04239  0  -0  0  -0.00245
Na  0.38612  1.4823  8.35059  0  0  0  0.003
Na  1.88873  -0.68227  10.81453  -0  0  0  0.00163
Cl  3.50842  1.64825  9.21077  0  0  0  0.00112
Cl  -1.10098  -1.08259  9.78721  -0  0  0  0.00043
Cl  2.31003  -1.04531  7.61932  0  0  0  -0.00286
Cl  0.94178  1.09418  5.17824  0  -0  0  0.00091
Na  -2.19298  2.6629  -6.82717  -0  0  -0  0.00345
Na  2.45619  5.55586  -7.29786  -0  0  -0  -0.00399
Na  -0.37846  5.9645  -5.05277  -0  0  -0  -0.00144
Na  0.40417  3.93317  -2.77608  -0  0  -0  -0.00024
Cl  2.82568  6.31399  -4.15106  -0  -0  -0  -0.00019
Cl  -2.64459  3.52458  -3.61249  -0  -0  -0  0.0033
Cl  0.88202  3.11567  -5.92789  -0  0  -0  -0.0031
Cl  -0.69955  5.1912  -8.21881  -0  0  -0  -0.00206
Na  -2.12978  3.72491  -0.41929  -0  -0  -0  0.00008
Na  1.37309  6.57972  -1.22893  -0  -0  -0  -0.00492
Na  -1.02667  6.3691  1.11871  -0  -0  -0  0.00689
Na  1.59636  3.848  3.59348  0  -0  0  -0.00074
Cl  2.09687  6.64851  1.98023  -0  -0  -0  -0.00527
Cl  -1.5239  3.61151  2.78458  -0  -0  0  0.00072
Cl  0.97449  3.83952  0.42975  0  -0  -0  -0.00312
Cl  -1.70085  6.47304  -2.12539  -0  -0  -0  0.00247
Na  -0.92973  3.52987  5.99083  0  -0  0  -0.00224
Na  2.80484  6.48211  5.14701  -0  -0  0  -0.00168
Na  0.22768  6.1496  7.59495  0  -0  -0  -0.00046
Na  1.46131  4.16025  9.89313  0  0  0  -0.00306
Cl  3.43204  6.4815  8.38991  0  -0  0  0.00311
Cl  -1.72221  3.9049  9.16307  0  0  0  0.00162
Cl  2.20354  3.7355  6.77099  0  -0  0  -0.00459
Cl  -0.39396  6.36942  4.38035  -0  -0  -0  -0.00225
Na  5.06191  -5.89556  -4.58368  0  0  -0  -0.00435
Na  9.54261  -2.20794  -5.71402  0  -0  -0  0.00151
Na  6.39039  -3.68449  -2.54533  0  -0  -0  0.00113
Na  8.43474  -5.78145  -1.10556  0  0  -0  -0.00239
Cl  9.65315  -2.98454  -2.49634  0  -0  -0  0.00116
Cl  5.13641  -6.45869  -1.29107  0  -0  -0  0.00756
Cl  8.37415  -5.43701  -4.46455  0  0  -0  0.00074
Cl  6.37555  -3.0848  -5.91781  0  0  -0  0.00381
Na  5.50636  -6.43164  2.05044  -0  -0  0  0.00301
Na  9.9714  -3.32927  0.69982  0  -0  0  0.00068
Na  7.31631  -3.73589  3.89146  0  -0  0  0.00357
Na  9.0059  -5.72862  5.73834  0  -0  0  0.00032
Cl  10.5398  -3.39063  3.9407  0  -0  0  -0.00208
Cl  5.70458  -6.14758  5.45688  0  0  0  0.00531
Cl  8.82212  -6.05201  2.26609  0  -0  -0  -0.00234
Cl  6.77092  -3.7136  0.70393  -0  -0  0  -0.00217
Na  5.65879  -5.58453  8.7149  0  0  0  -0.00363
Na  10.56904  -3.13051  7.27369  0  -0  0  0.00381
Na  7.08575  -2.85599  10.31338  0  -0  0  -0.00331
Na  8.77366  -4.54864  12.43028  0  -0  0  -0.00592
Cl  10.54002  -2.55784  10.55034  0  -0  0  -0.00531
Cl  5.61074  -5.29942  11.97545  -0  0  0  0.00431
Cl  8.94988  -5.38482  9.17191  0  -0  0  -0.00153
Cl  7.34862  -3.2987  7.12073  0  -0  0  -0.00331
Na  4.2332  -1.16149  -4.276  0  0  -0  -0.00176
Na  9.30866  1.12721  -5.45625  0  -0  0  -0.00325
Na  5.3601  1.47225  -2.77185  0  0  -0  -0.00441
Na  7.89424  -0.96954  -0.59073  0  -0  0  -0.00011
Cl  8.74137  1.75716  -2.24505  -0  0  0  0.00115
Cl  4.71714  -1.33672  -1.10774  0  -0  -0  0.00153
Cl  7.36733  -0.85584  -3.69396  0  -0  0  0.00593
Cl  6.09415  0.88737  -6.17965  0  0  0  0.00814
Na  5.28225  -1.25463  2.04485  0  0  -0  -0.00297
Na  9.0624  1.74095  0.88345  0  -0  0  -0.00281
Na  6.62717  1.43499  3.50573  0  0  -0  -0.00281
Na  9.07024  -0.94133  5.56528  0  -0  0  -0.00439
Cl  9.83581  1.81347  3.95906  -0  0  0  -0.00159
Cl  5.86422  -1.21266  5.11589  0  -0  -0  0.0003
Cl  8.4472  -1.04581  2.49353  0  -0  0  -0.00141
Cl  5.90156  1.41005  0.41063  0  0  -0  0.00098
Na  5.46661  -0.81512  8.29767  0  0  0  -0.00041
Na  10.42075  1.65727  7.11034  0  -0  0  -0.003
Na  6.68972  1.77547  9.86315  0  0  0  -0.00009
Na  8.30265  -0.34851  11.91509  0  -0  0  -0.00205
Cl  10.05425  2.03154  10.41552  0  -0  0  0.00047
Cl  5.05296  -0.4334  11.58472  0  0  0  -0.00177
Cl  8.68559  -0.58219  8.69797  0  -0  0  0.0033
Cl  7.14387  1.43601  6.62145  0  -0  -0  0.00095
Na  4.02146  3.36442  -5.12516  0  0  -0  0.00131
Na  8.66834  6.40748  -5.21408  0  0  0  0.00234
Na  6.09721  6.38004  -3.18036  0  0  -0  -0.00075
Na  6.56024  4.05431  -1.16426  -0  0  -0  0.00407
Cl  9.38351  5.13968  -2.23284  0  0  -0  -0.00074
Cl  3.48623  3.98862  -1.91677  -0  -0  -0  0.00375
Cl  7.17978  3.58972  -4.47652  0  0  -0  0.00321
Cl  5.58133  5.95265  -6.39371  0  0  -0  -0.00143
Na  4.07782  4.04003  1.25377  0  -0  0  0.00333
Na  7.68349  6.80978  0.12056  0  0  0  0.00317
Na  5.2603  6.68871  2.76413  0  -0  0  0.00025
Na  7.9075  4.16251  5.10547  -0  0  0  0.00476
Cl  8.4623  6.96633  3.46792  -0  0  0  0.00057
Cl  4.7497  3.93375  4.43339  0  0  0  -0.00045
Cl  7.23328  4.1792  1.97621  0  0  0  0.00002
Cl  4.49486  6.82602  -0.42225  -0  -0  -0  -0.00153
Na  5.29632  3.88142  7.62673  0  -0  0  0.00969
Na  9.18915  6.70134  6.75514  -0  0  0  -0.00485
Na  6.6906  6.47282  9.20779  0  -0  0  -0.005
Na  7.8491  4.33091  11.44058  0  0  0  -0.00241
Cl  10.42441  5.90767  9.93932  -0  0  0  0.00076
Cl  4.6435  4.35122  10.812  0  -0  0  -0.00105
Cl  8.42811  3.95227  8.2384  0  -0  0  -0.00584
Cl  5.98418  6.67295  5.99227  -0  0  0  -0.00463
