256
#forces [0 0 0] --- created by Molecular Workbench, http://mw.concord.org
Al  -8.1198  -8.11151  -8.04483  0.00161  -0.00044  0.00101  0
Al  -6.08276  -6.05593  -8.07263  -0.00009  -0.00029  -0.00001  0
Al  -8.14916  -6.06937  -10.09902  0.00016  0.00006  0.00247  0
Al  -6.10089  -8.08571  -10.11593  0.0017  0.00096  0.00138  0
Al  -8.09219  -8.11262  -4.0312  0.00011  0.00133  -0.00021  0
Al  -6.06122  -6.03402  -4.02908  -0.00026  -0.00044  0.00098  0
Al  -8.12012  -6.05125  -6.02821  0.00081  -0.00037  0.0004  0
Al  -6.07425  -8.099  -6.07425  0  0  0  0
Al  -8.10314  -8.12098  -0.01049  -0.00071  0.00032  -0.00039  0
Al  -6.07425  -6.07425  0  0  0  0  0
Al  -8.11303  -6.04867  -2.03262  0.0007  -0.00011  0.00018  0
Al  -6.07425  -8.099  -2.02475  0  0  0  0
Al  -8.12494  -8.10059  4.07913  0.00085  0.00064  -0.00121  0
Al  -6.03767  -6.06419  4.07962  0.00058  0.00059  -0.00255  0
Al  -8.10926  -6.07876  1.99303  0.00163  0.00046  -0.00085  0
Al  -6.06037  -8.12463  2.01275  0.00074  0.00119  -0.00108  0
Al  -8.13759  -4.05136  -8.05507  0.00085  0.00051  0.00016  0
Al  -6.0925  -2.0293  -8.04872  0.00012  0.0006  -0.00025  0
Al  -8.14187  -2.01521  -10.07707  0.00003  -0.00056  0.00174  0
Al  -6.10545  -4.0295  -10.10133  -0.00125  0.00028  0.00118  0
Al  -8.12696  -4.00451  -4.00904  0.00049  0.00038  0.00005  0
Al  -6.08775  -2.02095  -4.02121  0.0002  0.00013  -0.00017  0
Al  -8.14445  -2.01604  -6.04908  -0.00015  0.00052  0.00057  0
Al  -6.08114  -4.03165  -6.04241  0.001  0.00018  -0.00003  0
Al  -8.11245  -4.04334  0.00181  0.0002  0.00079  -0.00101  0
Al  -6.08647  -2.02279  0.02534  0.00105  0.00042  -0.00037  0
Al  -8.13086  -2.00695  -1.99975  0.00006  0.00037  -0.00018  0
Al  -6.0886  -4.02703  -2.00752  0.00091  0.00036  -0.00004  0
Al  -8.12636  -4.097  4.05039  0.00005  0.00064  -0.0006  0
Al  -6.09809  -2.05835  4.07268  0.00011  0.00002  -0.00121  0
Al  -8.12001  -2.05075  2.04178  0.00116  0.00044  -0.00036  0
Al  -6.08062  -4.06188  2.03442  0.00067  0.00082  -0.00043  0
Al  -8.1452  0.00679  -8.04878  0.00029  -0.00019  0.00006  0
Al  -6.10597  2.01361  -8.05084  0.00036  -0.00035  0.00065  0
Al  -8.13086  2.01341  -10.10372  -0.0003  -0.00056  0.00042  0
Al  -6.09515  -0.00412  -10.08169  -0.00053  -0.00039  0.00096  0
Al  -8.14297  -0.03059  -4.03241  -0.00021  -0.00003  0.00049  0
Al  -6.10727  2.00598  -4.0271  0.00074  -0.00011  0.00004  0
Al  -8.15258  2.01232  -6.02898  -0.00038  -0.00065  0.00075  0
Al  -6.1061  -0.00557  -6.04096  0.00078  0.00021  0.00048  0
Al  -8.13441  -0.02284  0.02462  0.00016  -0.00043  -0.0008  0
Al  -6.0884  1.99229  0.00379  0.00103  -0.00041  -0.00008  0
Al  -8.13788  1.97887  -2.0252  -0.00034  -0.00072  -0.0001  0
Al  -6.09537  -0.02224  -2.0163  0.00021  0.00006  -0.00019  0
Al  -8.12186  -0.01242  4.06204  0.00041  0.00049  -0.00091  0
Al  -6.07876  1.9998  4.08  -0.00016  -0.00109  -0.00054  0
Al  -8.12023  2.02776  2.04575  0.00115  -0.001  0.00017  0
Al  -6.08695  -0.00769  2.03532  0.00027  -0.00098  0.00012  0
Al  -8.13961  4.02879  -8.0562  0.00124  -0.00003  0.00042  0
Al  -6.08478  6.06901  -8.05696  -0.00034  -0.00164  0.00057  0
Al  -8.14289  6.0811  -10.14592  0.00025  -0.00047  0.00046  0
Al  -6.08073  4.01407  -10.10777  -0.00013  -0.00015  0.00198  0
Al  -8.13782  4.02881  -4.0117  0.00082  -0.00057  0.00043  0
Al  -6.0922  6.06841  -4.01447  0.00002  -0.00165  0.00043  0
Al  -8.12262  6.07455  -6.03482  -0.00042  -0.00005  0.00113  0
Al  -6.10228  4.02645  -6.03233  0.00062  -0.00088  0.00015  0
Al  -8.12883  4.01403  -0.0108  0.00072  0.00018  -0.00037  0
Al  -6.0595  6.07069  -0.0164  -0.00051  -0.00141  -0.00056  0
Al  -8.11406  6.07584  -1.99722  0.00044  -0.001  0.00016  0
Al  -6.08879  4.01066  -2.00915  -0.00019  -0.00009  -0.00096  0
Al  -8.104  4.04556  4.10231  0.0011  -0.00126  -0.00092  0
Al  -6.06029  6.06939  4.08974  0.00125  -0.00119  -0.00103  0
Al  -8.099  6.07425  2.02475  0  0  0  0
Al  -6.07378  4.02203  2.02721  -0.00072  0.00043  0.00024  0
Al  -4.07388  -8.09297  -8.07555  0.00107  0.00108  0.00022  0
Al  -2.06441  -6.05406  -8.05431  0.00093  0.0004  0.00017  0
Al  -4.06684  -6.04814  -10.12074  0.00082  0.00024  0.00119  0
Al  -2.06594  -8.10336  -10.10158  -0.00047  0.00081  0.00058  0
Al  -4.06046  -8.0932  -4.02009  0.00025  -0.00014  -0.00001  0
Al  -2.04963  -6.05102  -4.02192  -0.00012  0.00008  0.00002  0
Al  -4.06732  -6.05399  -6.04373  0.00017  0.00066  0.0001  0
Al  -2.05873  -8.10031  -6.03899  0.00044  0.00006  0.00093  0
Al  -4.06159  -8.11128  -0.02156  0.00077  0.00021  -0.00111  0
Al  -2.05029  -6.06771  0.00685  0.00015  0.00123  -0.00033  0
Al  -4.05738  -6.05016  -2.01395  0.00021  0.00038  0.00015  0
Al  -2.04441  -8.09435  -2.02589  -0.00003  0.00011  -0.00061  0
Al  -4.05157  -8.13951  4.05609  0.00116  0.00043  -0.0001  0
Al  -2.0466  -6.09989  4.05284  0.00033  0.00052  -0.00099  0
Al  -4.06048  -6.08047  2.03029  0.0007  0.00068  -0.00053  0
Al  -2.0656  -8.12307  2.00118  0.00036  0.00131  -0.00005  0
Al  -4.06181  -4.03325  -8.05932  0.00012  0.00004  0.0006  0
Al  -2.05012  -2.02139  -8.0369  0.00032  0.00025  -0.00049  0
Al  -4.06079  -2.00212  -10.08894  -0.00031  0.00013  -0.00036  0
Al  -2.03369  -4.02735  -10.09327  0.00036  0.00071  -0.00053  0
Al  -4.05255  -4.01969  -4.02239  0.00002  -0.00041  -0.0002  0
Al  -2.0531  -2.02595  -4.02047  -0.00011  -0.00006  -0.00024  0
Al  -4.07047  -2.01886  -6.03466  0.00012  -0.00014  -0.00056  0
Al  -2.04891  -4.04019  -6.0325  -0.00024  -0.00033  -0.00027  0
Al  -4.06085  -4.03773  0.01323  -0.00055  -0.00034  0.00073  0
Al  -2.0607  -2.03729  0.0045  0.00003  -0.00014  0.00103  0
Al  -4.07124  -2.02577  -1.99728  -0.00046  -0.00051  0.00041  0
Al  -2.05277  -4.03805  -2.00481  -0.00031  -0.00022  0.00049  0
Al  -4.03869  -4.04097  4.08134  0.00088  0.00088  -0.00019  0
Al  -2.0242  -2.02278  4.06378  0.00069  0.00022  0.00082  0
Al  -4.07318  -2.03809  2.03627  0.00025  0.00016  -0.00029  0
Al  -2.0514  -4.06186  2.02751  0.00001  0.00018  -0.00018  0
Al  -4.08243  -0.00877  -8.04472  -0.00005  0.00009  0.00069  0
Al  -2.06373  2.00167  -8.04029  -0.00033  -0.00051  0.0008  0
Al  -4.07075  1.99763  -10.07794  0.00026  -0.00062  0.00009  0
Al  -2.0546  -0.02185  -10.06919  -0.00008  0.00006  -0.00061  0
Al  -4.07883  -0.01049  -4.0309  -0.00043  0.00053  -0.00055  0
Al  -2.06375  1.99503  -4.0313  -0.00059  0.00051  -0.00069  0
Al  -4.08009  2.00091  -6.03783  -0.00108  0.00084  -0.00084  0
Al  -2.06519  -0.01405  -6.02714  -0.00036  0.00055  -0.00079  0
Al  -4.06935  -0.01615  0.00622  0.00025  0.00013  0.00017  0
Al  -2.05439  1.99276  -0.00254  0.00017  -0.00004  0.00014  0
Al  -4.07512  1.99057  -2.01915  -0.00012  0.00007  -0.00004  0
Al  -2.06003  -0.0098  -2.00801  -0.00016  0.00021  0.00022  0
Al  -4.05912  -0.04235  4.07195  0.00058  -0.00047  0.00048  0
Al  -2.03952  1.97936  4.05912  0.00009  -0.00075  0.00053  0
Al  -4.06127  1.98709  2.0194  0.00018  -0.00039  -0.00047  0
Al  -2.04424  -0.02951  2.01493  0.00023  -0.00032  0.00023  0
Al  -4.08504  4.02233  -8.04104  0.00005  -0.00094  0.00086  0
Al  -2.06901  6.05795  -8.03519  -0.00009  -0.00098  0.00054  0
Al  -4.0631  6.04576  -10.10197  0.00017  0.00006  0.00039  0
Al  -2.06153  4.00494  -10.07072  0.00007  -0.00015  0.00121  0
Al  -4.08017  4.01801  -4.02683  0.00011  -0.00095  0.00003  0
Al  -2.041  6.05253  -4.02496  -0.00033  0.00011  0.00052  0
Al  -4.0784  6.06989  -6.02225  0.00037  -0.00019  0.00082  0
Al  -2.0591  4.01859  -6.0362  -0.00025  -0.00091  0.00039  0
Al  -4.06248  4.00936  -0.00851  0.00019  -0.00133  0.00002  0
Al  -2.04475  6.05539  -0.00348  -0.00029  -0.00037  -0.00062  0
Al  -4.05055  6.05348  -2.03723  0.00017  -0.00026  -0.00016  0
Al  -2.04793  4.00909  -2.02175  -0.00015  -0.00017  -0.00005  0
Al  -4.05238  4.01918  4.0736  0.00083  -0.00029  -0.00066  0
Al  -2.0426  6.05475  4.05032  -0.00108  -0.00091  -0.00079  0
Al  -4.06592  6.0625  2.02632  0.00047  -0.00161  -0.00001  0
Al  -2.06319  4.0083  2.01375  0.00085  -0.00031  0.00005  0
Al  -0.04841  -8.12194  -8.05549  -0.00098  0.00087  0.00024  0
Al  1.97553  -6.08869  -8.05209  -0.00053  0.00067  0.00067  0
Al  -0.04188  -6.07965  -10.09128  -0.00039  -0.00001  0.00067  0
Al  1.976  -8.12897  -10.08724  -0.00098  -0.00009  0.0001  0
Al  -0.05878  -8.11625  -4.03372  -0.00024  0.00009  0.00049  0
Al  1.97622  -6.09213  -4.03665  -0.00045  0.00092  -0.00011  0
Al  -0.04295  -6.08214  -6.04786  0.00019  0.00108  0.0005  0
Al  1.9698  -8.13645  -6.04041  -0.00099  -0.00024  0.00062  0
Al  -0.05344  -8.12839  -0.01614  -0.0003  0.00003  -0.00038  0
Al  1.97335  -6.09145  -0.01384  -0.00015  0.00064  0.00022  0
Al  -0.04214  -6.07059  -2.02146  -0.00002  0.00006  0.00009  0
Al  1.95655  -8.13635  -2.04454  -0.00075  -0.00035  0.00005  0
Al  -0.02812  -8.15057  4.01932  -0.00011  0.00044  -0.00086  0
Al  1.98185  -6.11081  4.04161  -0.00073  -0.00059  -0.00064  0
Al  -0.03553  -6.09139  2.00642  -0.00096  0.00016  0.00036  0
Al  1.99061  -8.14363  1.99285  -0.00081  0.00065  0.00052  0
Al  -0.03994  -4.05706  -8.05192  0.00016  0.00051  0.00085  0
Al  1.96567  -2.04366  -8.04392  -0.00039  -0.00002  0.00076  0
Al  -0.05578  -2.02148  -10.07248  -0.00011  0.00043  -0.00056  0
Al  1.95292  -4.05736  -10.09034  -0.00071  0.00062  -0.00036  0
Al  -0.03305  -4.05473  -4.02894  0.00046  -0.00032  -0.00052  0
Al  1.96517  -2.04929  -4.02781  0.00049  -0.00065  -0.00033  0
Al  -0.03283  -2.04266  -6.02757  0.00056  -0.00046  -0.00056  0
Al  1.96915  -4.06741  -6.03751  0.00073  -0.00089  -0.00085  0
Al  -0.04319  -4.05604  -0.00365  0.00029  0.00001  0.00062  0
Al  1.96237  -2.04255  -0.00869  0.00029  -0.00021  0.00046  0
Al  -0.03979  -2.03832  -2.0071  0.00035  -0.00014  0.00032  0
Al  1.96856  -4.06066  -2.01864  0.00011  -0.00019  0.00024  0
Al  -0.04622  -4.06336  4.05464  0.00002  0.00035  0.00072  0
Al  1.95511  -2.03805  4.04407  -0.0002  0.00016  0.00075  0
Al  -0.04363  -2.03677  2.00544  0.00017  -0.00027  0.00053  0
Al  1.96676  -4.07307  2.00233  -0.0001  -0.00026  -0.00028  0
Al  -0.05682  -0.02457  -8.0316  0.00014  -0.00001  -0.00041  0
Al  1.96055  1.98927  -8.04034  -0.00044  -0.00012  0.00067  0
Al  -0.06574  1.97963  -10.07704  -0.00044  -0.00047  -0.00034  0
Al  1.94522  -0.03742  -10.08025  -0.00056  0.00001  -0.0002  0
Al  -0.0396  -0.01746  -4.02263  0.0004  0.00033  -0.00021  0
Al  1.9702  1.9878  -4.0165  0.00008  -0.00002  -0.00011  0
Al  -0.04697  1.99003  -6.02404  0.00014  0.00002  -0.00042  0
Al  1.9617  -0.02638  -6.02541  0.0001  0.0001  -0.0003  0
Al  -0.03936  -0.01626  -0.0026  0.00073  0.00043  0.00071  0
Al  1.9765  1.99367  0.00264  0.00052  0.00056  0.00095  0
Al  -0.03388  1.99622  -2.00362  0.00044  0.00048  0.00038  0
Al  1.96709  -0.01881  -2.00432  0.00045  0.00037  0.00056  0
Al  -0.03793  -0.02315  4.04865  0.00012  -0.00003  0.00087  0
Al  1.97694  1.98779  4.05349  -0.00077  -0.00061  0.00046  0
Al  -0.03673  2.00066  2.01786  0.00005  -0.00036  -0.00064  0
Al  1.9751  -0.02509  2.01097  -0.00049  0.00023  -0.00067  0
Al  -0.03739  4.00946  -8.03758  -0.00129  -0.00023  0.00018  0
Al  1.97384  6.06383  -8.05111  -0.00081  -0.00102  -0.0001  0
Al  -0.06221  6.05087  -10.06694  -0.00013  -0.00068  0.00107  0
Al  1.96245  4.0225  -10.08989  -0.00102  0.00006  0.00089  0
Al  -0.03755  4.01061  -4.01834  -0.00016  0.00021  -0.00004  0
Al  1.9686  6.05827  -4.0042  -0.00066  0.00025  0.00039  0
Al  -0.0482  6.06009  -6.02729  -0.00034  0.00021  0.0005  0
Al  1.97614  4.01285  -6.02998  -0.00027  -0.00079  0.00017  0
Al  -0.03761  4.01692  0.00648  -0.00024  -0.00105  -0.00023  0
Al  1.98149  6.05791  -0.00429  -0.00094  -0.00003  -0.00047  0
Al  -0.04791  6.05275  -2.01315  -0.00056  0.00022  -0.00006  0
Al  1.98404  4.01603  -2.00757  -0.00056  -0.00093  0.00034  0
Al  -0.03502  4.00699  4.05289  -0.00084  -0.00037  -0.00076  0
Al  1.98734  6.04328  4.05726  -0.00105  -0.00031  0.00009  0
Al  -0.0295  6.05267  2.01509  -0.00083  -0.0012  -0.00013  0
Al  1.98521  4.01052  2.01637  -0.00043  -0.00084  -0.00073  0
Al  3.99996  -8.13417  -8.04723  -0.00064  0.00142  0.00023  0
Al  6.03839  -6.06625  -8.05485  -0.00196  -0  0.00019  0
Al  3.97414  -6.07738  -10.09699  -0.00051  0.00009  0.00159  0
Al  6.05655  -8.13974  -10.11991  -0.0008  0.00031  0.00063  0
Al  3.99968  -8.12786  -4.03408  -0.00086  0.00051  0.00049  0
Al  6.03561  -6.06951  -4.03711  -0.0015  -0.0001  0.00054  0
Al  3.99407  -6.08974  -6.04465  -0.00098  0.00066  0.00034  0
Al  6.05683  -8.11031  -6.03927  -0.00044  -0.00029  0.00073  0
Al  4.01467  -8.13786  -0.03643  -0.00029  0.00071  -0.00062  0
Al  6.04616  -6.08362  -0.02708  -0.00152  -0.00047  -0.00055  0
Al  3.98684  -6.08605  -2.02322  -0.00047  -0.0001  -0.00088  0
Al  6.06368  -8.11394  -2.04021  -0.00111  0.00034  0.0004  0
Al  4.01582  -8.15122  4.03217  -0.0012  0.00061  -0.001  0
Al  6.03062  -6.08556  4.04326  -0.001  0.00078  -0.00104  0
Al  4.00196  -6.1004  1.99768  -0.00003  -0.00035  0.00017  0
Al  6.06117  -8.12378  1.99142  -0.0014  0.0009  -0.00086  0
Al  3.97894  -4.06744  -8.05081  -0.00115  0.00018  0.00093  0
Al  6.0132  -2.04653  -8.0558  -0.00135  0.00031  0.00043  0
Al  3.95852  -2.04595  -10.08499  -0.00056  0.00034  0.00086  0
Al  6.00539  -4.05206  -10.10155  -0.00041  0.00065  0.00021  0
Al  3.98497  -4.06843  -4.03217  -0.00111  0.00031  -0  0
Al  6.01635  -2.03683  -4.02276  -0.00015  -0.00004  0.00039  0
Al  3.98164  -2.04771  -6.03798  -0.00123  -0.00013  0.00043  0
Al  6.02662  -4.0525  -6.03829  -0.00052  0.00055  0.00077  0
Al  3.98629  -4.06737  -0.0153  -0.00081  -0.00004  0.00011  0
Al  6.02711  -2.03992  -0.02713  -0.00025  -0.0002  -0.00022  0
Al  3.97584  -2.04187  -2.02144  -0.00003  -0.00009  0.00016  0
Al  6.02588  -4.04867  -2.04145  -0.00046  0  0.00015  0
Al  3.98817  -4.07087  4.04102  0.00005  0.00039  -0.00064  0
Al  6.02045  -2.05957  4.03202  -0.00098  -0.00058  -0.00059  0
Al  3.97834  -2.05987  1.99557  -0.00036  0.00089  0.00024  0
Al  6.03569  -4.06685  2.00079  -0.00144  0.00034  0.00022  0
Al  3.97055  -0.02448  -8.04123  -0.00035  -0.00109  0.00024  0
Al  6.0234  1.98056  -8.06565  -0.00129  -0.00075  -0.00004  0
Al  3.9711  1.9835  -10.09773  -0.00014  -0.00067  0.00109  0
Al  5.99385  -0.03665  -10.09538  -0.00122  0.00014  0.00079  0
Al  3.9788  -0.03226  -4.01628  0  -0.0003  0.00011  0
Al  6.03761  1.97077  -4.01143  -0.00003  -0.00064  0.0003  0
Al  3.98731  1.9841  -6.03164  -0.00089  -0.00034  0.00028  0
Al  6.02598  -0.04648  -6.02798  -0.0001  -0.00028  0.00067  0
Al  3.99064  -0.02921  -0.00351  -0.00113  -0.00012  -0.00013  0
Al  6.04388  1.97721  -0.00756  -0.00021  -0.00087  -0.00049  0
Al  3.99611  1.99328  -2.01018  -0.00107  -0.00058  0.00029  0
Al  6.02513  -0.03918  -2.02514  0.00005  -0.00045  0.00003  0
Al  3.97668  -0.04527  4.03875  -0.00035  -0.00042  -0.00059  0
Al  6.02269  1.95622  4.04845  -0.00023  -0.00095  0.00017  0
Al  3.99318  1.9852  2.01011  -0.00093  -0.0004  -0.00058  0
Al  6.02681  -0.04328  1.99935  -0.00126  -0.00057  -0.00003  0
Al  3.99016  4.01312  -8.0544  -0.00038  -0.00015  0.00006  0
Al  6.04045  6.04618  -8.06031  -0.00132  -0.00134  0.00107  0
Al  3.98517  6.07175  -10.08901  -0.00113  -0.00098  0.00091  0
Al  5.998  4.00743  -10.11132  -0.0014  -0.00108  0.001  0
Al  3.99399  4.00298  -4.02953  -0.00033  -0.00028  0.00122  0
Al  6.04258  6.03464  -4.02508  -0.00085  -0.00083  -0.00002  0
Al  4.00566  6.06033  -6.03253  -0.00003  -0.00111  0.00091  0
Al  6.0431  4.00342  -6.039  -0.00124  -0.00007  0.00082  0
Al  4.00121  4.0058  0.00361  -0.00105  -0.00104  -0.00013  0
Al  6.04823  6.03314  -0.00259  -0.0001  -0.00029  -0.00037  0
Al  4.00322  6.0474  -2.01298  -0.00034  -0.00101  -0.00013  0
Al  6.04257  3.99697  -2.01365  -0.00117  -0.00041  -0.00013  0
Al  3.99808  3.99276  4.06203  -0.0003  -0.00031  -0.00153  0
Al  6.0563  6.04719  4.09041  -0.00069  -0.00078  -0.00019  0
Al  4.00064  6.04977  2.01004  -0.00045  -0.00177  -0.00004  0
Al  6.04914  3.9863  2.0139  -0.00176  -0.00056  -0.00004  0
